/*---------------------------------------------------------------------------*\
| =========                 |                                                 |
| \\      /  F ield         | OpenFOAM: The Open Source CFD Toolbox           |
|  \\    /   O peration     | Version:  v1706                                 |
|   \\  /    A nd           | Web:      www.OpenFOAM.com                      |
|    \\/     M anipulation  |                                                 |
\*---------------------------------------------------------------------------*/
Build  : v1706
Arch   : "LSB;label=32;scalar=64"
Exec   : waveFoam -parallel
Date   : Oct 06 2019
Time   : 15:03:30
Host   : "aunura"
PID    : 7214
Case   : /home/aunura/OpenFOAM/aunura-v1706/run/solitary/solitarySmall
nProcs : 8
Slaves : 
7
(
"aunura.7215"
"aunura.7216"
"aunura.7217"
"aunura.7218"
"aunura.7219"
"aunura.7220"
"aunura.7221"
)

Pstream initialized with:
    floatTransfer      : 0
    nProcsSimpleSum    : 0
    commsType          : nonBlocking
    polling iterations : 0
sigFpe : Enabling floating point exception trapping (FOAM_SIGFPE).
fileModificationChecking : Monitoring run-time modified files using timeStampMaster (fileModificationSkew 10)
allowSystemOperations : Allowing user-supplied system call operations

// * * * * * * * * * * * * * * * * * * * * * * * * * * * * * * * * * * * * * //
Create time

Create mesh for time = 0

// using new solver syntax:
pcorr
{
    solver          GAMG;
    tolerance       1e-07;
    relTol          0;
    smoother        DIC;
    nPreSweeps      0;
    nPostSweeps     2;
    nFinestSweeps   2;
    cacheAgglomeration true;
    nCellsInCoarsestLevel 10;
    agglomerator    faceAreaPair;
    mergeLevels     1;
}

// using new solver syntax:
pcorrFinal
{
    solver          GAMG;
    tolerance       1e-07;
    relTol          0;
    smoother        DIC;
    nPreSweeps      0;
    nPostSweeps     2;
    nFinestSweeps   2;
    cacheAgglomeration true;
    nCellsInCoarsestLevel 10;
    agglomerator    faceAreaPair;
    mergeLevels     1;
}

// using new solver syntax:
p_rgh
{
    solver          GAMG;
    tolerance       1e-07;
    relTol          0;
    smoother        DIC;
    nPreSweeps      0;
    nPostSweeps     2;
    nFinestSweeps   2;
    cacheAgglomeration true;
    nCellsInCoarsestLevel 10;
    agglomerator    faceAreaPair;
    mergeLevels     1;
}

// using new solver syntax:
p_rghFinal
{
    solver          GAMG;
    tolerance       1e-08;
    relTol          0;
    smoother        DIC;
    nPreSweeps      0;
    nPostSweeps     2;
    nFinestSweeps   2;
    cacheAgglomeration true;
    nCellsInCoarsestLevel 10;
    agglomerator    faceAreaPair;
    mergeLevels     1;
}

// using new solver syntax:
U
{
    solver          PBiCG;
    preconditioner  DILU;
    tolerance       1e-09;
    relTol          0;
}

// using new solver syntax:
UFinal
{
    solver          PBiCGStab;
    preconditioner  DILU;
    tolerance       1e-09;
    relTol          0;
}

// using new solver syntax:
gamma
{
    solver          PBiCGStab;
    preconditioner  DILU;
    tolerance       1e-07;
    relTol          0;
}


PIMPLE: Operating solver in PISO mode


Reading g

Reading waveProperties

Reading waveProperties
Reading field p_rgh

Reading field U

Reading/calculating face flux field phi

Reading transportProperties

Selecting incompressible transport model Newtonian
Selecting incompressible transport model Newtonian
Selecting turbulence model type laminar
Selecting laminar stress model Stokes
No MRF models present

No finite volume options present

GAMG:  Solving for pcorr, Initial residual = 1, Final residual = 7.43017e-08, No Iterations 23
GAMG:  Solving for pcorr, Initial residual = 1.1678e-09, Final residual = 1.1678e-09, No Iterations 0
time step continuity errors : sum local = 2.09572e-12, global = -1.38513e-12, cumulative = -1.38513e-12
Courant Number mean: 0.00145134 max: 0.0101996

Starting time loop

Courant Number mean: 0.00145134 max: 0.0101996
Interface Courant Number mean: 4.48421e-05 max: 0.0101996
deltaT = 0.00119904
Time = 0.00119904

PIMPLE: iteration 1
smoothSolver:  Solving for alpha.water, Initial residual = 3.39775e-05, Final residual = 4.67463e-10, No Iterations 1
Phase-1 volume fraction = 0.529245  Min(alpha.water) = 0  Max(alpha.water) = 1
MULES: Correcting alpha.water
Phase-1 volume fraction = 0.529245  Min(alpha.water) = 0  Max(alpha.water) = 1
Relaxing time: 0.03 s
DILUPBiCGStab:  Solving for Ux, Initial residual = 0.00105001, Final residual = 2.99301e-10, No Iterations 1
DILUPBiCGStab:  Solving for Uz, Initial residual = 0.0375049, Final residual = 9.89098e-12, No Iterations 2
GAMG:  Solving for p_rgh, Initial residual = 0.333574, Final residual = 9.47261e-08, No Iterations 13
GAMG:  Solving for p_rgh, Initial residual = 1.03863e-07, Final residual = 4.80653e-08, No Iterations 1
time step continuity errors : sum local = 6.07581e-09, global = 5.02008e-09, cumulative = 5.01869e-09
GAMG:  Solving for p_rgh, Initial residual = 8.78645e-05, Final residual = 7.21348e-08, No Iterations 4
GAMG:  Solving for p_rgh, Initial residual = 7.21434e-08, Final residual = 7.21434e-08, No Iterations 0
time step continuity errors : sum local = 9.11758e-09, global = -5.52729e-09, cumulative = -5.086e-10
GAMG:  Solving for p_rgh, Initial residual = 4.4756e-07, Final residual = 4.58493e-08, No Iterations 1
GAMG:  Solving for p_rgh, Initial residual = 4.58494e-08, Final residual = 5.70357e-09, No Iterations 3
time step continuity errors : sum local = 7.20823e-10, global = -6.76625e-11, cumulative = -5.76263e-10
ExecutionTime = 0.31 s  ClockTime = 1 s

Courant Number mean: 0.00172911 max: 0.0123377
Interface Courant Number mean: 5.28113e-05 max: 0.0123377
deltaT = 0.00143747
Time = 0.00263651

PIMPLE: iteration 1
smoothSolver:  Solving for alpha.water, Initial residual = 4.07326e-05, Final residual = 5.56495e-10, No Iterations 1
Phase-1 volume fraction = 0.529284  Min(alpha.water) = 0  Max(alpha.water) = 1
MULES: Correcting alpha.water
Phase-1 volume fraction = 0.529284  Min(alpha.water) = 0  Max(alpha.water) = 1
Relaxing time: 0.02 s
DILUPBiCGStab:  Solving for Ux, Initial residual = 0.00427351, Final residual = 7.08551e-10, No Iterations 1
DILUPBiCGStab:  Solving for Uz, Initial residual = 0.0130439, Final residual = 1.00338e-11, No Iterations 2
GAMG:  Solving for p_rgh, Initial residual = 0.00058221, Final residual = 9.06482e-08, No Iterations 9
GAMG:  Solving for p_rgh, Initial residual = 1.05244e-07, Final residual = 4.82121e-08, No Iterations 1
time step continuity errors : sum local = 7.45421e-09, global = 6.68409e-09, cumulative = 6.10782e-09
GAMG:  Solving for p_rgh, Initial residual = 4.11589e-06, Final residual = 3.58599e-08, No Iterations 2
GAMG:  Solving for p_rgh, Initial residual = 3.58621e-08, Final residual = 3.58621e-08, No Iterations 0
time step continuity errors : sum local = 5.54338e-09, global = -5.96709e-10, cumulative = 5.51112e-09
GAMG:  Solving for p_rgh, Initial residual = 4.60539e-08, Final residual = 4.60539e-08, No Iterations 0
GAMG:  Solving for p_rgh, Initial residual = 4.60539e-08, Final residual = 5.07982e-09, No Iterations 2
time step continuity errors : sum local = 7.85212e-10, global = 4.73125e-10, cumulative = 5.98424e-09
ExecutionTime = 0.44 s  ClockTime = 2 s

Courant Number mean: 0.00207016 max: 0.0150043
Interface Courant Number mean: 6.48443e-05 max: 0.0147968
deltaT = 0.00172696
Time = 0.00436346

PIMPLE: iteration 1
smoothSolver:  Solving for alpha.water, Initial residual = 4.894e-05, Final residual = 7.40773e-10, No Iterations 1
Phase-1 volume fraction = 0.52933  Min(alpha.water) = 0  Max(alpha.water) = 1
MULES: Correcting alpha.water
Phase-1 volume fraction = 0.52933  Min(alpha.water) = 0  Max(alpha.water) = 1
Relaxing time: 0.01 s
DILUPBiCGStab:  Solving for Ux, Initial residual = 0.00166127, Final residual = 5.63429e-10, No Iterations 1
DILUPBiCGStab:  Solving for Uz, Initial residual = 0.00351176, Final residual = 5.8516e-12, No Iterations 2
GAMG:  Solving for p_rgh, Initial residual = 0.000579861, Final residual = 7.03921e-08, No Iterations 5
GAMG:  Solving for p_rgh, Initial residual = 7.1406e-08, Final residual = 7.1406e-08, No Iterations 0
time step continuity errors : sum local = 1.56012e-08, global = -8.03879e-10, cumulative = 5.18036e-09
GAMG:  Solving for p_rgh, Initial residual = 2.78953e-06, Final residual = 8.63485e-08, No Iterations 1
GAMG:  Solving for p_rgh, Initial residual = 8.63696e-08, Final residual = 8.63696e-08, No Iterations 0
time step continuity errors : sum local = 1.8866e-08, global = 3.88073e-10, cumulative = 5.56844e-09
GAMG:  Solving for p_rgh, Initial residual = 9.56309e-08, Final residual = 9.56309e-08, No Iterations 0
GAMG:  Solving for p_rgh, Initial residual = 9.56309e-08, Final residual = 9.79568e-09, No Iterations 2
time step continuity errors : sum local = 2.1397e-09, global = -2.74513e-11, cumulative = 5.54098e-09
ExecutionTime = 0.56 s  ClockTime = 3 s

Courant Number mean: 0.00248879 max: 0.019029
Interface Courant Number mean: 8.01345e-05 max: 0.0177574
deltaT = 0.00207379
Time = 0.00643726

PIMPLE: iteration 1
smoothSolver:  Solving for alpha.water, Initial residual = 5.87746e-05, Final residual = 1.02458e-09, No Iterations 1
Phase-1 volume fraction = 0.529386  Min(alpha.water) = 0  Max(alpha.water) = 1
MULES: Correcting alpha.water
Phase-1 volume fraction = 0.529386  Min(alpha.water) = 0  Max(alpha.water) = 1
Relaxing time: 0.01 s
DILUPBiCGStab:  Solving for Ux, Initial residual = 0.00120132, Final residual = 8.27342e-10, No Iterations 1
DILUPBiCGStab:  Solving for Uz, Initial residual = 0.00225351, Final residual = 5.73704e-12, No Iterations 2
GAMG:  Solving for p_rgh, Initial residual = 0.000663515, Final residual = 7.89756e-08, No Iterations 4
GAMG:  Solving for p_rgh, Initial residual = 7.93036e-08, Final residual = 7.93036e-08, No Iterations 0
time step continuity errors : sum local = 2.47699e-08, global = -3.89408e-10, cumulative = 5.15158e-09
GAMG:  Solving for p_rgh, Initial residual = 3.65982e-06, Final residual = 2.74264e-08, No Iterations 2
GAMG:  Solving for p_rgh, Initial residual = 2.74369e-08, Final residual = 2.74369e-08, No Iterations 0
time step continuity errors : sum local = 8.56644e-09, global = 2.69608e-10, cumulative = 5.42118e-09
GAMG:  Solving for p_rgh, Initial residual = 4.8604e-08, Final residual = 4.8604e-08, No Iterations 0
GAMG:  Solving for p_rgh, Initial residual = 4.8604e-08, Final residual = 9.77501e-09, No Iterations 1
time step continuity errors : sum local = 3.05199e-09, global = 8.44542e-11, cumulative = 5.50564e-09
ExecutionTime = 0.64 s  ClockTime = 3 s

Courant Number mean: 0.00299553 max: 0.0242784
Interface Courant Number mean: 0.000107907 max: 0.0222543
deltaT = 0.00249274
Time = 0.00893

PIMPLE: iteration 1
smoothSolver:  Solving for alpha.water, Initial residual = 7.0652e-05, Final residual = 1.44705e-09, No Iterations 1
Phase-1 volume fraction = 0.529454  Min(alpha.water) = 0  Max(alpha.water) = 1
MULES: Correcting alpha.water
Phase-1 volume fraction = 0.529454  Min(alpha.water) = 0  Max(alpha.water) = 1
Relaxing time: 0.01 s
DILUPBiCGStab:  Solving for Ux, Initial residual = 0.00118309, Final residual = 5.09088e-12, No Iterations 2
DILUPBiCGStab:  Solving for Uz, Initial residual = 0.00187531, Final residual = 7.81865e-12, No Iterations 2
GAMG:  Solving for p_rgh, Initial residual = 0.000766191, Final residual = 5.41875e-08, No Iterations 4
GAMG:  Solving for p_rgh, Initial residual = 5.42472e-08, Final residual = 5.42472e-08, No Iterations 0
time step continuity errors : sum local = 2.43712e-08, global = -2.76749e-09, cumulative = 2.73815e-09
GAMG:  Solving for p_rgh, Initial residual = 4.91648e-06, Final residual = 2.56969e-08, No Iterations 2
GAMG:  Solving for p_rgh, Initial residual = 2.57014e-08, Final residual = 2.57014e-08, No Iterations 0
time step continuity errors : sum local = 1.15447e-08, global = 2.81025e-10, cumulative = 3.01917e-09
GAMG:  Solving for p_rgh, Initial residual = 5.77203e-08, Final residual = 5.77203e-08, No Iterations 0
GAMG:  Solving for p_rgh, Initial residual = 5.77203e-08, Final residual = 7.29735e-09, No Iterations 1
time step continuity errors : sum local = 3.27786e-09, global = 1.48701e-10, cumulative = 3.16787e-09
ExecutionTime = 0.73 s  ClockTime = 4 s

Courant Number mean: 0.00361068 max: 0.0307425
Interface Courant Number mean: 0.000134616 max: 0.0278474
deltaT = 0.00299433
Time = 0.0119243

PIMPLE: iteration 1
smoothSolver:  Solving for alpha.water, Initial residual = 8.48696e-05, Final residual = 2.06465e-09, No Iterations 1
Phase-1 volume fraction = 0.529535  Min(alpha.water) = 0  Max(alpha.water) = 1
MULES: Correcting alpha.water
Phase-1 volume fraction = 0.529535  Min(alpha.water) = 0  Max(alpha.water) = 1
Relaxing time: 0.01 s
DILUPBiCGStab:  Solving for Ux, Initial residual = 0.00127559, Final residual = 1.04553e-11, No Iterations 2
DILUPBiCGStab:  Solving for Uz, Initial residual = 0.00183061, Final residual = 1.3493e-11, No Iterations 2
GAMG:  Solving for p_rgh, Initial residual = 0.00088697, Final residual = 5.44051e-08, No Iterations 4
GAMG:  Solving for p_rgh, Initial residual = 5.43969e-08, Final residual = 5.43969e-08, No Iterations 0
time step continuity errors : sum local = 3.51816e-08, global = -9.36643e-09, cumulative = -6.19855e-09
GAMG:  Solving for p_rgh, Initial residual = 6.65669e-06, Final residual = 2.81269e-08, No Iterations 2
GAMG:  Solving for p_rgh, Initial residual = 2.81293e-08, Final residual = 2.81293e-08, No Iterations 0
time step continuity errors : sum local = 1.81913e-08, global = 8.81194e-11, cumulative = -6.11043e-09
GAMG:  Solving for p_rgh, Initial residual = 8.14558e-08, Final residual = 8.14558e-08, No Iterations 0
GAMG:  Solving for p_rgh, Initial residual = 8.14558e-08, Final residual = 6.94043e-09, No Iterations 1
time step continuity errors : sum local = 4.48838e-09, global = 1.00922e-10, cumulative = -6.00951e-09
ExecutionTime = 0.84 s  ClockTime = 5 s

Courant Number mean: 0.00435029 max: 0.0382669
Interface Courant Number mean: 0.000175518 max: 0.0345981
deltaT = 0.00358879
Time = 0.0155131

PIMPLE: iteration 1
smoothSolver:  Solving for alpha.water, Initial residual = 0.000101718, Final residual = 2.95956e-09, No Iterations 1
Phase-1 volume fraction = 0.529632  Min(alpha.water) = 0  Max(alpha.water) = 1
MULES: Correcting alpha.water
Phase-1 volume fraction = 0.529632  Min(alpha.water) = 0  Max(alpha.water) = 1
Relaxing time: 0.01 s
DILUPBiCGStab:  Solving for Ux, Initial residual = 0.00143068, Final residual = 2.13599e-11, No Iterations 2
DILUPBiCGStab:  Solving for Uz, Initial residual = 0.00200999, Final residual = 2.63411e-11, No Iterations 2
GAMG:  Solving for p_rgh, Initial residual = 0.00102933, Final residual = 6.47103e-08, No Iterations 4
GAMG:  Solving for p_rgh, Initial residual = 6.46585e-08, Final residual = 6.46585e-08, No Iterations 0
time step continuity errors : sum local = 6.0008e-08, global = -2.74795e-08, cumulative = -3.3489e-08
GAMG:  Solving for p_rgh, Initial residual = 9.02641e-06, Final residual = 3.59504e-08, No Iterations 2
GAMG:  Solving for p_rgh, Initial residual = 3.59518e-08, Final residual = 3.59518e-08, No Iterations 0
time step continuity errors : sum local = 3.33647e-08, global = -8.40482e-10, cumulative = -3.43294e-08
GAMG:  Solving for p_rgh, Initial residual = 1.27563e-07, Final residual = 8.42478e-09, No Iterations 1
GAMG:  Solving for p_rgh, Initial residual = 8.42494e-09, Final residual = 8.42494e-09, No Iterations 0
time step continuity errors : sum local = 7.81852e-09, global = -1.59206e-10, cumulative = -3.44887e-08
ExecutionTime = 0.91 s  ClockTime = 6 s

Courant Number mean: 0.00523067 max: 0.0469
Interface Courant Number mean: 0.000215331 max: 0.0469
deltaT = 0.00428749
Time = 0.0198006

PIMPLE: iteration 1
smoothSolver:  Solving for alpha.water, Initial residual = 0.000121516, Final residual = 4.24613e-09, No Iterations 1
Phase-1 volume fraction = 0.529748  Min(alpha.water) = 0  Max(alpha.water) = 1
MULES: Correcting alpha.water
Phase-1 volume fraction = 0.529748  Min(alpha.water) = 0  Max(alpha.water) = 1
Relaxing time: 0.02 s
DILUPBiCGStab:  Solving for Ux, Initial residual = 0.00163967, Final residual = 4.31982e-11, No Iterations 2
DILUPBiCGStab:  Solving for Uz, Initial residual = 0.00245187, Final residual = 5.31002e-11, No Iterations 2
GAMG:  Solving for p_rgh, Initial residual = 0.00119714, Final residual = 8.3894e-08, No Iterations 4
GAMG:  Solving for p_rgh, Initial residual = 8.37901e-08, Final residual = 8.37901e-08, No Iterations 0
time step continuity errors : sum local = 1.10975e-07, global = -7.24839e-08, cumulative = -1.06973e-07
GAMG:  Solving for p_rgh, Initial residual = 1.25364e-05, Final residual = 5.18246e-08, No Iterations 2
GAMG:  Solving for p_rgh, Initial residual = 5.18251e-08, Final residual = 5.18251e-08, No Iterations 0
time step continuity errors : sum local = 6.86387e-08, global = -4.63728e-09, cumulative = -1.1161e-07
GAMG:  Solving for p_rgh, Initial residual = 2.06872e-07, Final residual = 1.28138e-08, No Iterations 1
GAMG:  Solving for p_rgh, Initial residual = 1.28139e-08, Final residual = 3.62323e-09, No Iterations 1
time step continuity errors : sum local = 4.79866e-09, global = -8.26097e-10, cumulative = -1.12436e-07
ExecutionTime = 1 s  ClockTime = 7 s

Courant Number mean: 0.00627027 max: 0.0567385
Interface Courant Number mean: 0.000264989 max: 0.0567385
deltaT = 0.00516343
Time = 0.024964

PIMPLE: iteration 1
smoothSolver:  Solving for alpha.water, Initial residual = 0.000146324, Final residual = 6.22645e-09, No Iterations 1
Phase-1 volume fraction = 0.529888  Min(alpha.water) = 0  Max(alpha.water) = 1
MULES: Correcting alpha.water
Phase-1 volume fraction = 0.529888  Min(alpha.water) = 0  Max(alpha.water) = 1
Relaxing time: 0.01 s
DILUPBiCGStab:  Solving for Ux, Initial residual = 0.0019242, Final residual = 9.09848e-11, No Iterations 2
DILUPBiCGStab:  Solving for Uz, Initial residual = 0.00313592, Final residual = 1.17024e-10, No Iterations 2
GAMG:  Solving for p_rgh, Initial residual = 0.0013604, Final residual = 4.06009e-08, No Iterations 5
GAMG:  Solving for p_rgh, Initial residual = 4.05358e-08, Final residual = 4.05358e-08, No Iterations 0
time step continuity errors : sum local = 7.78359e-08, global = -6.45618e-08, cumulative = -1.76998e-07
GAMG:  Solving for p_rgh, Initial residual = 1.78177e-05, Final residual = 8.36297e-08, No Iterations 2
GAMG:  Solving for p_rgh, Initial residual = 8.36282e-08, Final residual = 8.36282e-08, No Iterations 0
time step continuity errors : sum local = 1.60584e-07, global = 2.74911e-08, cumulative = -1.49507e-07
GAMG:  Solving for p_rgh, Initial residual = 3.41734e-07, Final residual = 2.46847e-08, No Iterations 1
GAMG:  Solving for p_rgh, Initial residual = 2.46848e-08, Final residual = 6.86244e-09, No Iterations 1
time step continuity errors : sum local = 1.31773e-08, global = 6.35292e-09, cumulative = -1.43154e-07
ExecutionTime = 1.22 s  ClockTime = 8 s

Courant Number mean: 0.00757977 max: 0.0686987
Interface Courant Number mean: 0.000329492 max: 0.0686987
deltaT = 0.0061693
Time = 0.0311333

PIMPLE: iteration 1
smoothSolver:  Solving for alpha.water, Initial residual = 0.000174797, Final residual = 9.05257e-09, No Iterations 1
Phase-1 volume fraction = 0.530056  Min(alpha.water) = 0  Max(alpha.water) = 1
MULES: Correcting alpha.water
Phase-1 volume fraction = 0.530056  Min(alpha.water) = 0  Max(alpha.water) = 1
Relaxing time: 0.01 s
DILUPBiCGStab:  Solving for Ux, Initial residual = 0.0022644, Final residual = 1.86333e-10, No Iterations 2
DILUPBiCGStab:  Solving for Uz, Initial residual = 0.00401098, Final residual = 2.57175e-10, No Iterations 2
GAMG:  Solving for p_rgh, Initial residual = 0.00146727, Final residual = 5.7024e-08, No Iterations 5
GAMG:  Solving for p_rgh, Initial residual = 5.69164e-08, Final residual = 5.69164e-08, No Iterations 0
time step continuity errors : sum local = 1.55815e-07, global = -1.43026e-07, cumulative = -2.8618e-07
GAMG:  Solving for p_rgh, Initial residual = 2.46087e-05, Final residual = 2.92023e-08, No Iterations 3
GAMG:  Solving for p_rgh, Initial residual = 2.92014e-08, Final residual = 2.92014e-08, No Iterations 0
time step continuity errors : sum local = 7.99442e-08, global = 3.20579e-08, cumulative = -2.54122e-07
GAMG:  Solving for p_rgh, Initial residual = 4.38351e-07, Final residual = 1.40937e-08, No Iterations 1
GAMG:  Solving for p_rgh, Initial residual = 1.40937e-08, Final residual = 4.8258e-09, No Iterations 1
time step continuity errors : sum local = 1.32115e-08, global = 6.09161e-09, cumulative = -2.4803e-07
ExecutionTime = 1.36 s  ClockTime = 8 s

Courant Number mean: 0.00909423 max: 0.0820858
Interface Courant Number mean: 0.000404959 max: 0.0820858
deltaT = 0.00744233
Time = 0.0385757

PIMPLE: iteration 1
smoothSolver:  Solving for alpha.water, Initial residual = 0.000210882, Final residual = 3.03791e-15, No Iterations 2
Phase-1 volume fraction = 0.530258  Min(alpha.water) = 0  Max(alpha.water) = 1
MULES: Correcting alpha.water
Phase-1 volume fraction = 0.530258  Min(alpha.water) = 0  Max(alpha.water) = 1
Relaxing time: 0.02 s
DILUPBiCGStab:  Solving for Ux, Initial residual = 0.00272078, Final residual = 3.97667e-10, No Iterations 2
DILUPBiCGStab:  Solving for Uz, Initial residual = 0.00524382, Final residual = 5.95243e-10, No Iterations 2
GAMG:  Solving for p_rgh, Initial residual = 0.00155268, Final residual = 6.22099e-08, No Iterations 5
GAMG:  Solving for p_rgh, Initial residual = 6.2094e-08, Final residual = 6.2094e-08, No Iterations 0
time step continuity errors : sum local = 2.46911e-07, global = -2.2338e-07, cumulative = -4.71409e-07
GAMG:  Solving for p_rgh, Initial residual = 3.36217e-05, Final residual = 3.98284e-08, No Iterations 3
GAMG:  Solving for p_rgh, Initial residual = 3.98281e-08, Final residual = 3.98281e-08, No Iterations 0
time step continuity errors : sum local = 1.58372e-07, global = 8.01717e-08, cumulative = -3.91238e-07
GAMG:  Solving for p_rgh, Initial residual = 6.66187e-07, Final residual = 2.01993e-08, No Iterations 1
GAMG:  Solving for p_rgh, Initial residual = 2.01993e-08, Final residual = 7.28249e-09, No Iterations 1
time step continuity errors : sum local = 2.89581e-08, global = 1.77719e-08, cumulative = -3.73466e-07
ExecutionTime = 1.44 s  ClockTime = 9 s

Courant Number mean: 0.0110208 max: 0.0985715
Interface Courant Number mean: 0.000513926 max: 0.0985715
deltaT = 0.00887354
Time = 0.0474492

PIMPLE: iteration 1
smoothSolver:  Solving for alpha.water, Initial residual = 0.00025145, Final residual = 5.73854e-15, No Iterations 2
Phase-1 volume fraction = 0.530498  Min(alpha.water) = 0  Max(alpha.water) = 1
MULES: Correcting alpha.water
Phase-1 volume fraction = 0.530498  Min(alpha.water) = 0  Max(alpha.water) = 1
Relaxing time: 0.01 s
DILUPBiCGStab:  Solving for Ux, Initial residual = 0.00319963, Final residual = 8.0629e-10, No Iterations 2
DILUPBiCGStab:  Solving for Uz, Initial residual = 0.00679949, Final residual = 2.04036e-11, No Iterations 2
GAMG:  Solving for p_rgh, Initial residual = 0.00168829, Final residual = 8.03996e-08, No Iterations 5
GAMG:  Solving for p_rgh, Initial residual = 8.02212e-08, Final residual = 8.02212e-08, No Iterations 0
time step continuity errors : sum local = 4.53183e-07, global = -4.28618e-07, cumulative = -8.02084e-07
GAMG:  Solving for p_rgh, Initial residual = 4.78167e-05, Final residual = 5.9874e-08, No Iterations 3
GAMG:  Solving for p_rgh, Initial residual = 5.98739e-08, Final residual = 5.98739e-08, No Iterations 0
time step continuity errors : sum local = 3.38233e-07, global = 1.8688e-07, cumulative = -6.15204e-07
GAMG:  Solving for p_rgh, Initial residual = 1.17355e-06, Final residual = 3.14632e-08, No Iterations 1
GAMG:  Solving for p_rgh, Initial residual = 3.14632e-08, Final residual = 4.67924e-09, No Iterations 2
time step continuity errors : sum local = 2.64335e-08, global = 1.5594e-08, cumulative = -5.9961e-07
ExecutionTime = 1.53 s  ClockTime = 9 s

Courant Number mean: 0.0132038 max: 0.116738
Interface Courant Number mean: 0.000616557 max: 0.116738
deltaT = 0.0102852
Time = 0.0577345

PIMPLE: iteration 1
smoothSolver:  Solving for alpha.water, Initial residual = 0.00029144, Final residual = 6.6359e-15, No Iterations 2
Phase-1 volume fraction = 0.530777  Min(alpha.water) = 0  Max(alpha.water) = 1
MULES: Correcting alpha.water
Phase-1 volume fraction = 0.530777  Min(alpha.water) = 0  Max(alpha.water) = 1
Relaxing time: 0.01 s
DILUPBiCGStab:  Solving for Ux, Initial residual = 0.00368395, Final residual = 2.87681e-11, No Iterations 2
DILUPBiCGStab:  Solving for Uz, Initial residual = 0.0085112, Final residual = 4.62086e-11, No Iterations 2
GAMG:  Solving for p_rgh, Initial residual = 0.00182576, Final residual = 9.23921e-08, No Iterations 5
GAMG:  Solving for p_rgh, Initial residual = 9.21674e-08, Final residual = 9.21674e-08, No Iterations 0
time step continuity errors : sum local = 6.99776e-07, global = -6.65979e-07, cumulative = -1.26559e-06
GAMG:  Solving for p_rgh, Initial residual = 6.42024e-05, Final residual = 8.24993e-08, No Iterations 3
GAMG:  Solving for p_rgh, Initial residual = 8.24993e-08, Final residual = 8.24993e-08, No Iterations 0
time step continuity errors : sum local = 6.2636e-07, global = 3.78209e-07, cumulative = -8.8738e-07
GAMG:  Solving for p_rgh, Initial residual = 1.83534e-06, Final residual = 4.43147e-08, No Iterations 1
GAMG:  Solving for p_rgh, Initial residual = 4.43145e-08, Final residual = 8.71684e-09, No Iterations 2
time step continuity errors : sum local = 6.61813e-08, global = 4.66481e-08, cumulative = -8.40732e-07
ExecutionTime = 1.62 s  ClockTime = 10 s

Courant Number mean: 0.0153813 max: 0.134386
Interface Courant Number mean: 0.000803447 max: 0.134386
deltaT = 0.0119531
Time = 0.0696876

PIMPLE: iteration 1
smoothSolver:  Solving for alpha.water, Initial residual = 0.000338642, Final residual = 1.49451e-14, No Iterations 2
Phase-1 volume fraction = 0.5311  Min(alpha.water) = 0  Max(alpha.water) = 1
MULES: Correcting alpha.water
Phase-1 volume fraction = 0.5311  Min(alpha.water) = 0  Max(alpha.water) = 1
Relaxing time: 0.01 s
DILUPBiCGStab:  Solving for Ux, Initial residual = 0.00426755, Final residual = 6.10214e-11, No Iterations 2
DILUPBiCGStab:  Solving for Uz, Initial residual = 0.0107477, Final residual = 1.0279e-10, No Iterations 2
GAMG:  Solving for p_rgh, Initial residual = 0.00197068, Final residual = 9.83627e-08, No Iterations 5
GAMG:  Solving for p_rgh, Initial residual = 9.80894e-08, Final residual = 9.80894e-08, No Iterations 0
time step continuity errors : sum local = 1.00798e-06, global = -9.62211e-07, cumulative = -1.80294e-06
GAMG:  Solving for p_rgh, Initial residual = 8.96903e-05, Final residual = 4.31949e-08, No Iterations 4
GAMG:  Solving for p_rgh, Initial residual = 4.31959e-08, Final residual = 4.31959e-08, No Iterations 0
time step continuity errors : sum local = 4.43864e-07, global = 3.59499e-07, cumulative = -1.44344e-06
GAMG:  Solving for p_rgh, Initial residual = 3.22053e-06, Final residual = 3.97129e-08, No Iterations 1
GAMG:  Solving for p_rgh, Initial residual = 3.97129e-08, Final residual = 5.54559e-09, No Iterations 2
time step continuity errors : sum local = 5.69843e-08, global = 3.98222e-08, cumulative = -1.40362e-06
ExecutionTime = 1.71 s  ClockTime = 11 s

Courant Number mean: 0.0179699 max: 0.156718
Interface Courant Number mean: 0.000973373 max: 0.156718
deltaT = 0.0134473
Time = 0.0831348

PIMPLE: iteration 1
smoothSolver:  Solving for alpha.water, Initial residual = 0.000381429, Final residual = 1.44027e-14, No Iterations 2
Phase-1 volume fraction = 0.531463  Min(alpha.water) = 0  Max(alpha.water) = 1
MULES: Correcting alpha.water
Phase-1 volume fraction = 0.531463  Min(alpha.water) = 0  Max(alpha.water) = 1
Relaxing time: 0.01 s
DILUPBiCGStab:  Solving for Ux, Initial residual = 0.00478897, Final residual = 1.09741e-10, No Iterations 2
DILUPBiCGStab:  Solving for Uz, Initial residual = 0.0129562, Final residual = 1.90015e-10, No Iterations 2
GAMG:  Solving for p_rgh, Initial residual = 0.00198915, Final residual = 4.41754e-08, No Iterations 6
GAMG:  Solving for p_rgh, Initial residual = 4.40467e-08, Final residual = 4.40467e-08, No Iterations 0
time step continuity errors : sum local = 5.73499e-07, global = -5.51277e-07, cumulative = -1.9549e-06
GAMG:  Solving for p_rgh, Initial residual = 0.000107941, Final residual = 5.42037e-08, No Iterations 4
GAMG:  Solving for p_rgh, Initial residual = 5.42066e-08, Final residual = 5.42066e-08, No Iterations 0
time step continuity errors : sum local = 7.05717e-07, global = 6.44686e-07, cumulative = -1.31021e-06
GAMG:  Solving for p_rgh, Initial residual = 4.26555e-06, Final residual = 4.97665e-08, No Iterations 1
GAMG:  Solving for p_rgh, Initial residual = 4.97662e-08, Final residual = 7.26989e-09, No Iterations 2
time step continuity errors : sum local = 9.46477e-08, global = 8.30405e-08, cumulative = -1.22717e-06
ExecutionTime = 1.8 s  ClockTime = 11 s

Courant Number mean: 0.0203535 max: 0.176042
Interface Courant Number mean: 0.00108476 max: 0.176042
deltaT = 0.014888
Time = 0.0980229

PIMPLE: iteration 1
smoothSolver:  Solving for alpha.water, Initial residual = 0.000423074, Final residual = 9.55739e-15, No Iterations 2
Phase-1 volume fraction = 0.531864  Min(alpha.water) = 0  Max(alpha.water) = 1
MULES: Correcting alpha.water
Phase-1 volume fraction = 0.531864  Min(alpha.water) = 0  Max(alpha.water) = 1
Relaxing time: 0.02 s
DILUPBiCGStab:  Solving for Ux, Initial residual = 0.00529289, Final residual = 1.82919e-10, No Iterations 2
DILUPBiCGStab:  Solving for Uz, Initial residual = 0.0152238, Final residual = 3.39917e-10, No Iterations 2
GAMG:  Solving for p_rgh, Initial residual = 0.00191699, Final residual = 4.14391e-08, No Iterations 6
GAMG:  Solving for p_rgh, Initial residual = 4.13115e-08, Final residual = 4.13115e-08, No Iterations 0
time step continuity errors : sum local = 6.58487e-07, global = -6.27354e-07, cumulative = -1.85453e-06
GAMG:  Solving for p_rgh, Initial residual = 0.000112664, Final residual = 5.82907e-08, No Iterations 4
GAMG:  Solving for p_rgh, Initial residual = 5.82973e-08, Final residual = 5.82973e-08, No Iterations 0
time step continuity errors : sum local = 9.29087e-07, global = 8.60507e-07, cumulative = -9.94019e-07
GAMG:  Solving for p_rgh, Initial residual = 4.48609e-06, Final residual = 5.48066e-08, No Iterations 1
GAMG:  Solving for p_rgh, Initial residual = 5.48064e-08, Final residual = 8.51521e-09, No Iterations 2
time step continuity errors : sum local = 1.35708e-07, global = 1.22833e-07, cumulative = -8.71186e-07
ExecutionTime = 1.89 s  ClockTime = 12 s

Courant Number mean: 0.0227055 max: 0.19408
Interface Courant Number mean: 0.00124698 max: 0.19408
deltaT = 0.0154607
Time = 0.113484

PIMPLE: iteration 1
smoothSolver:  Solving for alpha.water, Initial residual = 0.000440054, Final residual = 3.01796e-13, No Iterations 2
Phase-1 volume fraction = 0.532278  Min(alpha.water) = 0  Max(alpha.water) = 1
MULES: Correcting alpha.water
Phase-1 volume fraction = 0.532278  Min(alpha.water) = 0  Max(alpha.water) = 1
Relaxing time: 0.01 s
DILUPBiCGStab:  Solving for Ux, Initial residual = 0.00547578, Final residual = 2.20034e-10, No Iterations 2
DILUPBiCGStab:  Solving for Uz, Initial residual = 0.016164, Final residual = 4.04343e-10, No Iterations 2
GAMG:  Solving for p_rgh, Initial residual = 0.00192681, Final residual = 4.47137e-08, No Iterations 6
GAMG:  Solving for p_rgh, Initial residual = 4.45952e-08, Final residual = 4.45952e-08, No Iterations 0
time step continuity errors : sum local = 7.66799e-07, global = -7.35874e-07, cumulative = -1.60706e-06
GAMG:  Solving for p_rgh, Initial residual = 0.000111963, Final residual = 5.46644e-08, No Iterations 4
GAMG:  Solving for p_rgh, Initial residual = 5.46686e-08, Final residual = 5.46686e-08, No Iterations 0
time step continuity errors : sum local = 9.39891e-07, global = 8.4916e-07, cumulative = -7.579e-07
GAMG:  Solving for p_rgh, Initial residual = 5.11638e-06, Final residual = 5.2746e-08, No Iterations 1
GAMG:  Solving for p_rgh, Initial residual = 5.27457e-08, Final residual = 7.86068e-09, No Iterations 2
time step continuity errors : sum local = 1.35146e-07, global = 1.18693e-07, cumulative = -6.39207e-07
ExecutionTime = 1.98 s  ClockTime = 13 s

Courant Number mean: 0.0237483 max: 0.199356
Interface Courant Number mean: 0.00137332 max: 0.199356
deltaT = 0.0154607
Time = 0.128944

PIMPLE: iteration 1
smoothSolver:  Solving for alpha.water, Initial residual = 0.000440907, Final residual = 1.46627e-12, No Iterations 2
Phase-1 volume fraction = 0.53269  Min(alpha.water) = 0  Max(alpha.water) = 1
MULES: Correcting alpha.water
Phase-1 volume fraction = 0.53269  Min(alpha.water) = 0  Max(alpha.water) = 1
Relaxing time: 0.01 s
DILUPBiCGStab:  Solving for Ux, Initial residual = 0.00537276, Final residual = 2.1771e-10, No Iterations 2
DILUPBiCGStab:  Solving for Uz, Initial residual = 0.0163025, Final residual = 3.89932e-10, No Iterations 2
GAMG:  Solving for p_rgh, Initial residual = 0.001855, Final residual = 4.29841e-08, No Iterations 6
GAMG:  Solving for p_rgh, Initial residual = 4.28663e-08, Final residual = 4.28663e-08, No Iterations 0
time step continuity errors : sum local = 7.39208e-07, global = -7.08486e-07, cumulative = -1.34769e-06
GAMG:  Solving for p_rgh, Initial residual = 0.000104195, Final residual = 4.71736e-08, No Iterations 4
GAMG:  Solving for p_rgh, Initial residual = 4.71787e-08, Final residual = 4.71787e-08, No Iterations 0
time step continuity errors : sum local = 8.13447e-07, global = 7.35158e-07, cumulative = -6.12535e-07
GAMG:  Solving for p_rgh, Initial residual = 4.63701e-06, Final residual = 4.47462e-08, No Iterations 1
GAMG:  Solving for p_rgh, Initial residual = 4.47463e-08, Final residual = 5.5374e-09, No Iterations 2
time step continuity errors : sum local = 9.54746e-08, global = 8.27306e-08, cumulative = -5.29804e-07
ExecutionTime = 2.07 s  ClockTime = 13 s

Courant Number mean: 0.0239045 max: 0.196148
Interface Courant Number mean: 0.00138182 max: 0.196148
deltaT = 0.0154607
Time = 0.144405

PIMPLE: iteration 1
smoothSolver:  Solving for alpha.water, Initial residual = 0.000442393, Final residual = 3.41121e-12, No Iterations 2
Phase-1 volume fraction = 0.5331  Min(alpha.water) = 0  Max(alpha.water) = 1
MULES: Correcting alpha.water
Phase-1 volume fraction = 0.5331  Min(alpha.water) = 0  Max(alpha.water) = 1
Relaxing time: 0.01 s
DILUPBiCGStab:  Solving for Ux, Initial residual = 0.00530306, Final residual = 2.15892e-10, No Iterations 2
DILUPBiCGStab:  Solving for Uz, Initial residual = 0.0163942, Final residual = 3.79566e-10, No Iterations 2
GAMG:  Solving for p_rgh, Initial residual = 0.00177484, Final residual = 4.29094e-08, No Iterations 6
GAMG:  Solving for p_rgh, Initial residual = 4.27993e-08, Final residual = 4.27993e-08, No Iterations 0
time step continuity errors : sum local = 7.39881e-07, global = -7.10041e-07, cumulative = -1.23985e-06
GAMG:  Solving for p_rgh, Initial residual = 9.22948e-05, Final residual = 4.28053e-08, No Iterations 4
GAMG:  Solving for p_rgh, Initial residual = 4.2808e-08, Final residual = 4.2808e-08, No Iterations 0
time step continuity errors : sum local = 7.39958e-07, global = 6.35853e-07, cumulative = -6.03992e-07
GAMG:  Solving for p_rgh, Initial residual = 3.81941e-06, Final residual = 3.97147e-08, No Iterations 1
GAMG:  Solving for p_rgh, Initial residual = 3.97145e-08, Final residual = 5.86457e-09, No Iterations 2
time step continuity errors : sum local = 1.01372e-07, global = 8.32312e-08, cumulative = -5.20761e-07
ExecutionTime = 2.15 s  ClockTime = 14 s

Courant Number mean: 0.0240643 max: 0.195958
Interface Courant Number mean: 0.00140078 max: 0.195958
deltaT = 0.0154607
Time = 0.159866

PIMPLE: iteration 1
smoothSolver:  Solving for alpha.water, Initial residual = 0.00044417, Final residual = 6.42849e-12, No Iterations 2
Phase-1 volume fraction = 0.533508  Min(alpha.water) = 0  Max(alpha.water) = 1
MULES: Correcting alpha.water
Phase-1 volume fraction = 0.533508  Min(alpha.water) = 0  Max(alpha.water) = 1
Relaxing time: 0 s
DILUPBiCGStab:  Solving for Ux, Initial residual = 0.00525401, Final residual = 2.14246e-10, No Iterations 2
DILUPBiCGStab:  Solving for Uz, Initial residual = 0.0164702, Final residual = 3.69216e-10, No Iterations 2
GAMG:  Solving for p_rgh, Initial residual = 0.00177678, Final residual = 4.3103e-08, No Iterations 6
GAMG:  Solving for p_rgh, Initial residual = 4.29876e-08, Final residual = 4.29876e-08, No Iterations 0
time step continuity errors : sum local = 7.44338e-07, global = -7.10834e-07, cumulative = -1.2316e-06
GAMG:  Solving for p_rgh, Initial residual = 8.65535e-05, Final residual = 9.43776e-08, No Iterations 3
GAMG:  Solving for p_rgh, Initial residual = 9.43934e-08, Final residual = 9.43934e-08, No Iterations 0
time step continuity errors : sum local = 1.6341e-06, global = 1.19873e-06, cumulative = -3.28699e-08
GAMG:  Solving for p_rgh, Initial residual = 3.38813e-06, Final residual = 5.79257e-08, No Iterations 1
GAMG:  Solving for p_rgh, Initial residual = 5.79261e-08, Final residual = 3.75876e-09, No Iterations 3
time step continuity errors : sum local = 6.50699e-08, global = 5.24311e-08, cumulative = 1.95612e-08
ExecutionTime = 2.22 s  ClockTime = 15 s

Courant Number mean: 0.0242368 max: 0.197923
Interface Courant Number mean: 0.00145175 max: 0.197923
deltaT = 0.0154607
Time = 0.175326

PIMPLE: iteration 1
smoothSolver:  Solving for alpha.water, Initial residual = 0.000445723, Final residual = 1.12189e-11, No Iterations 2
Phase-1 volume fraction = 0.533914  Min(alpha.water) = 0  Max(alpha.water) = 1
MULES: Correcting alpha.water
Phase-1 volume fraction = 0.533914  Min(alpha.water) = 0  Max(alpha.water) = 1
Relaxing time: 0.02 s
DILUPBiCGStab:  Solving for Ux, Initial residual = 0.00522789, Final residual = 2.1304e-10, No Iterations 2
DILUPBiCGStab:  Solving for Uz, Initial residual = 0.0165379, Final residual = 3.59713e-10, No Iterations 2
GAMG:  Solving for p_rgh, Initial residual = 0.00181988, Final residual = 4.17807e-08, No Iterations 6
GAMG:  Solving for p_rgh, Initial residual = 4.16845e-08, Final residual = 4.16845e-08, No Iterations 0
time step continuity errors : sum local = 7.22598e-07, global = -6.55904e-07, cumulative = -6.36343e-07
GAMG:  Solving for p_rgh, Initial residual = 9.38911e-05, Final residual = 9.75754e-08, No Iterations 3
GAMG:  Solving for p_rgh, Initial residual = 9.7586e-08, Final residual = 9.7586e-08, No Iterations 0
time step continuity errors : sum local = 1.69139e-06, global = 1.26042e-06, cumulative = 6.24079e-07
GAMG:  Solving for p_rgh, Initial residual = 4.04047e-06, Final residual = 6.18606e-08, No Iterations 1
GAMG:  Solving for p_rgh, Initial residual = 6.18609e-08, Final residual = 9.6862e-09, No Iterations 2
time step continuity errors : sum local = 1.67883e-07, global = 1.45007e-07, cumulative = 7.69087e-07
ExecutionTime = 2.31 s  ClockTime = 15 s

Courant Number mean: 0.0244111 max: 0.199171
Interface Courant Number mean: 0.00143322 max: 0.199171
deltaT = 0.0154607
Time = 0.190787

PIMPLE: iteration 1
smoothSolver:  Solving for alpha.water, Initial residual = 0.000447776, Final residual = 1.93275e-11, No Iterations 2
Phase-1 volume fraction = 0.534318  Min(alpha.water) = 0  Max(alpha.water) = 1
MULES: Correcting alpha.water
Phase-1 volume fraction = 0.534318  Min(alpha.water) = 0  Max(alpha.water) = 1
Relaxing time: 0.01 s
DILUPBiCGStab:  Solving for Ux, Initial residual = 0.00515164, Final residual = 2.11177e-10, No Iterations 2
DILUPBiCGStab:  Solving for Uz, Initial residual = 0.0166756, Final residual = 3.52504e-10, No Iterations 2
GAMG:  Solving for p_rgh, Initial residual = 0.00176165, Final residual = 9.96263e-08, No Iterations 5
GAMG:  Solving for p_rgh, Initial residual = 9.93881e-08, Final residual = 9.93881e-08, No Iterations 0
time step continuity errors : sum local = 1.72521e-06, global = -1.47399e-06, cumulative = -7.04908e-07
GAMG:  Solving for p_rgh, Initial residual = 8.98214e-05, Final residual = 9.51044e-08, No Iterations 3
GAMG:  Solving for p_rgh, Initial residual = 9.51185e-08, Final residual = 9.51185e-08, No Iterations 0
time step continuity errors : sum local = 1.65079e-06, global = 1.01854e-06, cumulative = 3.13631e-07
GAMG:  Solving for p_rgh, Initial residual = 3.67562e-06, Final residual = 5.7226e-08, No Iterations 1
GAMG:  Solving for p_rgh, Initial residual = 5.72262e-08, Final residual = 9.57124e-09, No Iterations 2
time step continuity errors : sum local = 1.66109e-07, global = 1.14687e-07, cumulative = 4.28318e-07
ExecutionTime = 2.49 s  ClockTime = 16 s

Courant Number mean: 0.0245756 max: 0.200599
Interface Courant Number mean: 0.00146595 max: 0.200599
deltaT = 0.0154607
Time = 0.206247

PIMPLE: iteration 1
smoothSolver:  Solving for alpha.water, Initial residual = 0.000449945, Final residual = 3.03528e-11, No Iterations 2
Phase-1 volume fraction = 0.53472  Min(alpha.water) = 0  Max(alpha.water) = 1
MULES: Correcting alpha.water
Phase-1 volume fraction = 0.53472  Min(alpha.water) = 0  Max(alpha.water) = 1
Relaxing time: 0.03 s
DILUPBiCGStab:  Solving for Ux, Initial residual = 0.00510064, Final residual = 2.11794e-10, No Iterations 2
DILUPBiCGStab:  Solving for Uz, Initial residual = 0.0167852, Final residual = 3.78162e-10, No Iterations 2
GAMG:  Solving for p_rgh, Initial residual = 0.00176808, Final residual = 4.27435e-08, No Iterations 6
GAMG:  Solving for p_rgh, Initial residual = 4.26411e-08, Final residual = 4.26411e-08, No Iterations 0
time step continuity errors : sum local = 7.41676e-07, global = -6.37332e-07, cumulative = -2.09015e-07
GAMG:  Solving for p_rgh, Initial residual = 8.59258e-05, Final residual = 9.17501e-08, No Iterations 3
GAMG:  Solving for p_rgh, Initial residual = 9.17655e-08, Final residual = 9.17655e-08, No Iterations 0
time step continuity errors : sum local = 1.59579e-06, global = 1.17204e-06, cumulative = 9.63022e-07
GAMG:  Solving for p_rgh, Initial residual = 3.76972e-06, Final residual = 5.95196e-08, No Iterations 1
GAMG:  Solving for p_rgh, Initial residual = 5.95197e-08, Final residual = 4.02091e-09, No Iterations 3
time step continuity errors : sum local = 6.9923e-08, global = 5.62752e-08, cumulative = 1.0193e-06
ExecutionTime = 2.86 s  ClockTime = 17 s

Courant Number mean: 0.0247418 max: 0.203273
Interface Courant Number mean: 0.00152468 max: 0.199971
deltaT = 0.0154607
Time = 0.221708

PIMPLE: iteration 1
smoothSolver:  Solving for alpha.water, Initial residual = 0.000452477, Final residual = 4.44344e-11, No Iterations 2
Phase-1 volume fraction = 0.53512  Min(alpha.water) = 0  Max(alpha.water) = 1
MULES: Correcting alpha.water
Phase-1 volume fraction = 0.53512  Min(alpha.water) = 0  Max(alpha.water) = 1
Relaxing time: 0.01 s
DILUPBiCGStab:  Solving for Ux, Initial residual = 0.00507467, Final residual = 2.10877e-10, No Iterations 2
DILUPBiCGStab:  Solving for Uz, Initial residual = 0.0168714, Final residual = 3.82136e-10, No Iterations 2
GAMG:  Solving for p_rgh, Initial residual = 0.00186215, Final residual = 4.87012e-08, No Iterations 6
GAMG:  Solving for p_rgh, Initial residual = 4.85835e-08, Final residual = 4.85835e-08, No Iterations 0
time step continuity errors : sum local = 8.46631e-07, global = -7.12434e-07, cumulative = 3.06863e-07
GAMG:  Solving for p_rgh, Initial residual = 8.66862e-05, Final residual = 9.05824e-08, No Iterations 3
GAMG:  Solving for p_rgh, Initial residual = 9.06006e-08, Final residual = 9.06006e-08, No Iterations 0
time step continuity errors : sum local = 1.57845e-06, global = 1.14866e-06, cumulative = 1.45552e-06
GAMG:  Solving for p_rgh, Initial residual = 3.83791e-06, Final residual = 5.99527e-08, No Iterations 1
GAMG:  Solving for p_rgh, Initial residual = 5.9953e-08, Final residual = 9.09014e-09, No Iterations 2
time step continuity errors : sum local = 1.58369e-07, global = 1.31501e-07, cumulative = 1.58702e-06
ExecutionTime = 2.95 s  ClockTime = 18 s

Courant Number mean: 0.0249172 max: 0.203897
Interface Courant Number mean: 0.00155604 max: 0.197433
deltaT = 0.0154607
Time = 0.237169

PIMPLE: iteration 1
smoothSolver:  Solving for alpha.water, Initial residual = 0.000454988, Final residual = 6.24345e-11, No Iterations 2
Phase-1 volume fraction = 0.535518  Min(alpha.water) = 0  Max(alpha.water) = 1
MULES: Correcting alpha.water
Phase-1 volume fraction = 0.535518  Min(alpha.water) = 0  Max(alpha.water) = 1
Relaxing time: 0 s
DILUPBiCGStab:  Solving for Ux, Initial residual = 0.00506564, Final residual = 2.10331e-10, No Iterations 2
DILUPBiCGStab:  Solving for Uz, Initial residual = 0.0169059, Final residual = 3.89131e-10, No Iterations 2
GAMG:  Solving for p_rgh, Initial residual = 0.00188605, Final residual = 4.25946e-08, No Iterations 6
GAMG:  Solving for p_rgh, Initial residual = 4.25097e-08, Final residual = 4.25097e-08, No Iterations 0
time step continuity errors : sum local = 7.41285e-07, global = -5.84001e-07, cumulative = 1.00302e-06
GAMG:  Solving for p_rgh, Initial residual = 9.06844e-05, Final residual = 9.50503e-08, No Iterations 3
GAMG:  Solving for p_rgh, Initial residual = 9.50614e-08, Final residual = 9.50614e-08, No Iterations 0
time step continuity errors : sum local = 1.65742e-06, global = 1.22322e-06, cumulative = 2.22624e-06
GAMG:  Solving for p_rgh, Initial residual = 4.09332e-06, Final residual = 6.11202e-08, No Iterations 1
GAMG:  Solving for p_rgh, Initial residual = 6.11204e-08, Final residual = 4.53157e-09, No Iterations 3
time step continuity errors : sum local = 7.90087e-08, global = 6.57541e-08, cumulative = 2.292e-06
ExecutionTime = 3.03 s  ClockTime = 18 s

Courant Number mean: 0.0250944 max: 0.207019
Interface Courant Number mean: 0.00154798 max: 0.196886
deltaT = 0.0146017
Time = 0.251771

PIMPLE: iteration 1
smoothSolver:  Solving for alpha.water, Initial residual = 0.000432639, Final residual = 6.61302e-11, No Iterations 2
Phase-1 volume fraction = 0.535891  Min(alpha.water) = 0  Max(alpha.water) = 1
MULES: Correcting alpha.water
Phase-1 volume fraction = 0.535891  Min(alpha.water) = 0  Max(alpha.water) = 1
Relaxing time: 0.02 s
DILUPBiCGStab:  Solving for Ux, Initial residual = 0.00470848, Final residual = 1.56669e-10, No Iterations 2
DILUPBiCGStab:  Solving for Uz, Initial residual = 0.0156061, Final residual = 2.92704e-10, No Iterations 2
GAMG:  Solving for p_rgh, Initial residual = 0.00177391, Final residual = 4.48316e-08, No Iterations 6
GAMG:  Solving for p_rgh, Initial residual = 4.47482e-08, Final residual = 4.47482e-08, No Iterations 0
time step continuity errors : sum local = 6.9712e-07, global = -5.27731e-07, cumulative = 1.76427e-06
GAMG:  Solving for p_rgh, Initial residual = 7.34639e-05, Final residual = 7.82855e-08, No Iterations 3
GAMG:  Solving for p_rgh, Initial residual = 7.82918e-08, Final residual = 7.82918e-08, No Iterations 0
time step continuity errors : sum local = 1.21955e-06, global = 8.59709e-07, cumulative = 2.62398e-06
GAMG:  Solving for p_rgh, Initial residual = 2.96172e-06, Final residual = 4.83202e-08, No Iterations 1
GAMG:  Solving for p_rgh, Initial residual = 4.83202e-08, Final residual = 9.13139e-09, No Iterations 2
time step continuity errors : sum local = 1.42239e-07, global = 1.1693e-07, cumulative = 2.74091e-06
ExecutionTime = 3.12 s  ClockTime = 19 s

Courant Number mean: 0.0238559 max: 0.194821
Interface Courant Number mean: 0.00151841 max: 0.194529
deltaT = 0.0146017
Time = 0.266372

PIMPLE: iteration 1
smoothSolver:  Solving for alpha.water, Initial residual = 0.000435267, Final residual = 8.78902e-11, No Iterations 2
Phase-1 volume fraction = 0.536262  Min(alpha.water) = 0  Max(alpha.water) = 1
MULES: Correcting alpha.water
Phase-1 volume fraction = 0.536262  Min(alpha.water) = 0  Max(alpha.water) = 1
Relaxing time: 0.02 s
DILUPBiCGStab:  Solving for Ux, Initial residual = 0.00467693, Final residual = 1.56004e-10, No Iterations 2
DILUPBiCGStab:  Solving for Uz, Initial residual = 0.0157503, Final residual = 3.09367e-10, No Iterations 2
GAMG:  Solving for p_rgh, Initial residual = 0.00182582, Final residual = 5.17281e-08, No Iterations 6
GAMG:  Solving for p_rgh, Initial residual = 5.16286e-08, Final residual = 5.16286e-08, No Iterations 0
time step continuity errors : sum local = 8.05498e-07, global = -5.9753e-07, cumulative = 2.14338e-06
GAMG:  Solving for p_rgh, Initial residual = 7.29349e-05, Final residual = 7.83924e-08, No Iterations 3
GAMG:  Solving for p_rgh, Initial residual = 7.83997e-08, Final residual = 7.83997e-08, No Iterations 0
time step continuity errors : sum local = 1.22302e-06, global = 8.51235e-07, cumulative = 2.99461e-06
GAMG:  Solving for p_rgh, Initial residual = 2.9997e-06, Final residual = 4.87591e-08, No Iterations 1
GAMG:  Solving for p_rgh, Initial residual = 4.87591e-08, Final residual = 9.10036e-09, No Iterations 2
time step continuity errors : sum local = 1.41964e-07, global = 1.13285e-07, cumulative = 3.1079e-06
ExecutionTime = 3.22 s  ClockTime = 20 s

Courant Number mean: 0.0240086 max: 0.196048
Interface Courant Number mean: 0.00151364 max: 0.191544
deltaT = 0.0146017
Time = 0.280974

PIMPLE: iteration 1
smoothSolver:  Solving for alpha.water, Initial residual = 0.000438133, Final residual = 1.12894e-10, No Iterations 2
Phase-1 volume fraction = 0.53663  Min(alpha.water) = 0  Max(alpha.water) = 1
MULES: Correcting alpha.water
Phase-1 volume fraction = 0.53663  Min(alpha.water) = 0  Max(alpha.water) = 1
Relaxing time: 0.01 s
DILUPBiCGStab:  Solving for Ux, Initial residual = 0.00466664, Final residual = 1.55789e-10, No Iterations 2
DILUPBiCGStab:  Solving for Uz, Initial residual = 0.015818, Final residual = 3.32883e-10, No Iterations 2
GAMG:  Solving for p_rgh, Initial residual = 0.00190102, Final residual = 5.62817e-08, No Iterations 6
GAMG:  Solving for p_rgh, Initial residual = 5.61708e-08, Final residual = 5.61708e-08, No Iterations 0
time step continuity errors : sum local = 8.77432e-07, global = -6.25439e-07, cumulative = 2.48246e-06
GAMG:  Solving for p_rgh, Initial residual = 7.89102e-05, Final residual = 8.40497e-08, No Iterations 3
GAMG:  Solving for p_rgh, Initial residual = 8.40604e-08, Final residual = 8.40604e-08, No Iterations 0
time step continuity errors : sum local = 1.31288e-06, global = 9.12019e-07, cumulative = 3.39448e-06
GAMG:  Solving for p_rgh, Initial residual = 3.24552e-06, Final residual = 5.09713e-08, No Iterations 1
GAMG:  Solving for p_rgh, Initial residual = 5.09713e-08, Final residual = 4.37361e-09, No Iterations 3
time step continuity errors : sum local = 6.8308e-08, global = 5.24225e-08, cumulative = 3.4469e-06
ExecutionTime = 3.35 s  ClockTime = 21 s

Courant Number mean: 0.0241673 max: 0.197125
Interface Courant Number mean: 0.00152405 max: 0.188909
deltaT = 0.0146017
Time = 0.295576

PIMPLE: iteration 1
smoothSolver:  Solving for alpha.water, Initial residual = 0.000441165, Final residual = 1.41533e-10, No Iterations 2
Phase-1 volume fraction = 0.536997  Min(alpha.water) = 0  Max(alpha.water) = 1
MULES: Correcting alpha.water
Phase-1 volume fraction = 0.536997  Min(alpha.water) = 0  Max(alpha.water) = 1
Relaxing time: 0.03 s
DILUPBiCGStab:  Solving for Ux, Initial residual = 0.00467614, Final residual = 1.56157e-10, No Iterations 2
DILUPBiCGStab:  Solving for Uz, Initial residual = 0.0158539, Final residual = 3.73876e-10, No Iterations 2
GAMG:  Solving for p_rgh, Initial residual = 0.00194132, Final residual = 4.17451e-08, No Iterations 6
GAMG:  Solving for p_rgh, Initial residual = 4.16783e-08, Final residual = 4.16783e-08, No Iterations 0
time step continuity errors : sum local = 6.51213e-07, global = -4.2288e-07, cumulative = 3.02402e-06
GAMG:  Solving for p_rgh, Initial residual = 7.76962e-05, Final residual = 8.29745e-08, No Iterations 3
GAMG:  Solving for p_rgh, Initial residual = 8.29808e-08, Final residual = 8.29808e-08, No Iterations 0
time step continuity errors : sum local = 1.29641e-06, global = 9.09781e-07, cumulative = 3.9338e-06
GAMG:  Solving for p_rgh, Initial residual = 3.10773e-06, Final residual = 5.04408e-08, No Iterations 1
GAMG:  Solving for p_rgh, Initial residual = 5.04405e-08, Final residual = 9.96889e-09, No Iterations 2
time step continuity errors : sum local = 1.55745e-07, global = 1.29604e-07, cumulative = 4.0634e-06
ExecutionTime = 3.57 s  ClockTime = 22 s

Courant Number mean: 0.0243301 max: 0.198531
Interface Courant Number mean: 0.00153432 max: 0.185921
deltaT = 0.0146017
Time = 0.310177

PIMPLE: iteration 1
smoothSolver:  Solving for alpha.water, Initial residual = 0.000444607, Final residual = 1.76609e-10, No Iterations 2
Phase-1 volume fraction = 0.537361  Min(alpha.water) = 0  Max(alpha.water) = 1
MULES: Correcting alpha.water
Phase-1 volume fraction = 0.537361  Min(alpha.water) = 0  Max(alpha.water) = 1
Relaxing time: 0.04 s
DILUPBiCGStab:  Solving for Ux, Initial residual = 0.004641, Final residual = 1.56443e-10, No Iterations 2
DILUPBiCGStab:  Solving for Uz, Initial residual = 0.0159577, Final residual = 4.21191e-10, No Iterations 2
GAMG:  Solving for p_rgh, Initial residual = 0.00195077, Final residual = 4.27419e-08, No Iterations 6
GAMG:  Solving for p_rgh, Initial residual = 4.26706e-08, Final residual = 4.26706e-08, No Iterations 0
time step continuity errors : sum local = 6.66976e-07, global = -4.12367e-07, cumulative = 3.65104e-06
GAMG:  Solving for p_rgh, Initial residual = 7.25569e-05, Final residual = 7.88008e-08, No Iterations 3
GAMG:  Solving for p_rgh, Initial residual = 7.8807e-08, Final residual = 7.8807e-08, No Iterations 0
time step continuity errors : sum local = 1.23168e-06, global = 8.6739e-07, cumulative = 4.51843e-06
GAMG:  Solving for p_rgh, Initial residual = 2.7906e-06, Final residual = 4.83505e-08, No Iterations 1
GAMG:  Solving for p_rgh, Initial residual = 4.83505e-08, Final residual = 9.57636e-09, No Iterations 2
time step continuity errors : sum local = 1.4967e-07, global = 1.24645e-07, cumulative = 4.64307e-06
ExecutionTime = 3.8 s  ClockTime = 23 s

Courant Number mean: 0.0244855 max: 0.196181
Interface Courant Number mean: 0.00154552 max: 0.196181
deltaT = 0.0146017
Time = 0.324779

PIMPLE: iteration 1
smoothSolver:  Solving for alpha.water, Initial residual = 0.000447995, Final residual = 2.17297e-10, No Iterations 2
Phase-1 volume fraction = 0.537722  Min(alpha.water) = 0  Max(alpha.water) = 1
MULES: Correcting alpha.water
Phase-1 volume fraction = 0.537722  Min(alpha.water) = 0  Max(alpha.water) = 1
Relaxing time: 0.04 s
DILUPBiCGStab:  Solving for Ux, Initial residual = 0.00462837, Final residual = 1.57362e-10, No Iterations 2
DILUPBiCGStab:  Solving for Uz, Initial residual = 0.0160622, Final residual = 4.82063e-10, No Iterations 2
GAMG:  Solving for p_rgh, Initial residual = 0.00199956, Final residual = 4.32163e-08, No Iterations 6
GAMG:  Solving for p_rgh, Initial residual = 4.31448e-08, Final residual = 4.31448e-08, No Iterations 0
time step continuity errors : sum local = 6.74885e-07, global = -3.98684e-07, cumulative = 4.24439e-06
GAMG:  Solving for p_rgh, Initial residual = 7.23283e-05, Final residual = 7.78288e-08, No Iterations 3
GAMG:  Solving for p_rgh, Initial residual = 7.78357e-08, Final residual = 7.78357e-08, No Iterations 0
time step continuity errors : sum local = 1.21739e-06, global = 8.60604e-07, cumulative = 5.10499e-06
GAMG:  Solving for p_rgh, Initial residual = 2.91147e-06, Final residual = 4.9937e-08, No Iterations 1
GAMG:  Solving for p_rgh, Initial residual = 4.99369e-08, Final residual = 9.68225e-09, No Iterations 2
time step continuity errors : sum local = 1.51435e-07, global = 1.24965e-07, cumulative = 5.22996e-06
ExecutionTime = 4.05 s  ClockTime = 24 s

Courant Number mean: 0.0246363 max: 0.19526
Interface Courant Number mean: 0.00155502 max: 0.192964
deltaT = 0.0146017
Time = 0.339381

PIMPLE: iteration 1
smoothSolver:  Solving for alpha.water, Initial residual = 0.000452215, Final residual = 2.63723e-10, No Iterations 2
Phase-1 volume fraction = 0.538081  Min(alpha.water) = 0  Max(alpha.water) = 1.00001
MULES: Correcting alpha.water
Phase-1 volume fraction = 0.538081  Min(alpha.water) = 0  Max(alpha.water) = 1.00001
Relaxing time: 0.02 s
DILUPBiCGStab:  Solving for Ux, Initial residual = 0.00463358, Final residual = 1.54812e-10, No Iterations 2
DILUPBiCGStab:  Solving for Uz, Initial residual = 0.0161193, Final residual = 2.5512e-10, No Iterations 2
GAMG:  Solving for p_rgh, Initial residual = 0.00206847, Final residual = 4.08057e-08, No Iterations 6
GAMG:  Solving for p_rgh, Initial residual = 4.07395e-08, Final residual = 4.07395e-08, No Iterations 0
time step continuity errors : sum local = 6.37813e-07, global = -3.54383e-07, cumulative = 4.87557e-06
GAMG:  Solving for p_rgh, Initial residual = 7.83189e-05, Final residual = 8.2036e-08, No Iterations 3
GAMG:  Solving for p_rgh, Initial residual = 8.20424e-08, Final residual = 8.20424e-08, No Iterations 0
time step continuity errors : sum local = 1.2843e-06, global = 8.98382e-07, cumulative = 5.77395e-06
GAMG:  Solving for p_rgh, Initial residual = 3.23534e-06, Final residual = 5.18711e-08, No Iterations 1
GAMG:  Solving for p_rgh, Initial residual = 5.18706e-08, Final residual = 9.47354e-09, No Iterations 2
time step continuity errors : sum local = 1.48301e-07, global = 1.19813e-07, cumulative = 5.89377e-06
ExecutionTime = 4.14 s  ClockTime = 25 s

Courant Number mean: 0.0247853 max: 0.197727
Interface Courant Number mean: 0.00155946 max: 0.190515
deltaT = 0.0146017
Time = 0.353983

PIMPLE: iteration 1
smoothSolver:  Solving for alpha.water, Initial residual = 0.000456763, Final residual = 3.16692e-10, No Iterations 2
Phase-1 volume fraction = 0.538437  Min(alpha.water) = 0  Max(alpha.water) = 1.00001
MULES: Correcting alpha.water
Phase-1 volume fraction = 0.538437  Min(alpha.water) = 0  Max(alpha.water) = 1.00001
Relaxing time: 0.02 s
DILUPBiCGStab:  Solving for Ux, Initial residual = 0.0046519, Final residual = 1.55083e-10, No Iterations 2
DILUPBiCGStab:  Solving for Uz, Initial residual = 0.0161518, Final residual = 2.56195e-10, No Iterations 2
GAMG:  Solving for p_rgh, Initial residual = 0.00211919, Final residual = 9.49999e-08, No Iterations 5
GAMG:  Solving for p_rgh, Initial residual = 9.48649e-08, Final residual = 9.48649e-08, No Iterations 0
time step continuity errors : sum local = 1.48591e-06, global = -5.75518e-07, cumulative = 5.31825e-06
GAMG:  Solving for p_rgh, Initial residual = 7.69143e-05, Final residual = 8.21668e-08, No Iterations 3
GAMG:  Solving for p_rgh, Initial residual = 8.21766e-08, Final residual = 8.21766e-08, No Iterations 0
time step continuity errors : sum local = 1.28698e-06, global = 8.22782e-07, cumulative = 6.14103e-06
GAMG:  Solving for p_rgh, Initial residual = 2.96393e-06, Final residual = 4.99141e-08, No Iterations 1
GAMG:  Solving for p_rgh, Initial residual = 4.9914e-08, Final residual = 4.35672e-09, No Iterations 3
time step continuity errors : sum local = 6.82312e-08, global = 4.37606e-08, cumulative = 6.18479e-06
ExecutionTime = 4.23 s  ClockTime = 26 s

Courant Number mean: 0.0249145 max: 0.197666
Interface Courant Number mean: 0.00162243 max: 0.197666
deltaT = 0.0146017
Time = 0.368584

PIMPLE: iteration 1
smoothSolver:  Solving for alpha.water, Initial residual = 0.000461104, Final residual = 3.7434e-10, No Iterations 2
Phase-1 volume fraction = 0.538791  Min(alpha.water) = 0  Max(alpha.water) = 1.00001
MULES: Correcting alpha.water
Phase-1 volume fraction = 0.538791  Min(alpha.water) = 0  Max(alpha.water) = 1.00001
Relaxing time: 0.02 s
DILUPBiCGStab:  Solving for Ux, Initial residual = 0.00460705, Final residual = 1.54012e-10, No Iterations 2
DILUPBiCGStab:  Solving for Uz, Initial residual = 0.0162387, Final residual = 2.56568e-10, No Iterations 2
GAMG:  Solving for p_rgh, Initial residual = 0.00213917, Final residual = 4.02402e-08, No Iterations 6
GAMG:  Solving for p_rgh, Initial residual = 4.01869e-08, Final residual = 4.01869e-08, No Iterations 0
time step continuity errors : sum local = 6.29739e-07, global = -2.30331e-07, cumulative = 5.95446e-06
GAMG:  Solving for p_rgh, Initial residual = 7.66829e-05, Final residual = 8.05043e-08, No Iterations 3
GAMG:  Solving for p_rgh, Initial residual = 8.05128e-08, Final residual = 8.05128e-08, No Iterations 0
time step continuity errors : sum local = 1.26149e-06, global = 9.30626e-07, cumulative = 6.88509e-06
GAMG:  Solving for p_rgh, Initial residual = 2.88517e-06, Final residual = 5.01317e-08, No Iterations 1
GAMG:  Solving for p_rgh, Initial residual = 5.01315e-08, Final residual = 4.50345e-09, No Iterations 3
time step continuity errors : sum local = 7.05609e-08, global = 5.78292e-08, cumulative = 6.94292e-06
ExecutionTime = 4.33 s  ClockTime = 26 s

Courant Number mean: 0.0252792 max: 0.195484
Interface Courant Number mean: 0.00159572 max: 0.195484
deltaT = 0.0146017
Time = 0.383186

PIMPLE: iteration 1
smoothSolver:  Solving for alpha.water, Initial residual = 0.000463754, Final residual = 4.17307e-10, No Iterations 2
Phase-1 volume fraction = 0.539142  Min(alpha.water) = 0  Max(alpha.water) = 1.00001
MULES: Correcting alpha.water
Phase-1 volume fraction = 0.539142  Min(alpha.water) = 0  Max(alpha.water) = 1.00001
Relaxing time: 0.01 s
DILUPBiCGStab:  Solving for Ux, Initial residual = 0.00455402, Final residual = 1.56311e-10, No Iterations 2
DILUPBiCGStab:  Solving for Uz, Initial residual = 0.0163905, Final residual = 2.92246e-10, No Iterations 2
GAMG:  Solving for p_rgh, Initial residual = 0.00216783, Final residual = 9.48046e-08, No Iterations 5
GAMG:  Solving for p_rgh, Initial residual = 9.46604e-08, Final residual = 9.46604e-08, No Iterations 0
time step continuity errors : sum local = 1.48238e-06, global = -5.34275e-07, cumulative = 6.40864e-06
GAMG:  Solving for p_rgh, Initial residual = 7.89554e-05, Final residual = 8.8493e-08, No Iterations 3
GAMG:  Solving for p_rgh, Initial residual = 8.85055e-08, Final residual = 8.85055e-08, No Iterations 0
time step continuity errors : sum local = 1.38576e-06, global = 9.5766e-07, cumulative = 7.3663e-06
GAMG:  Solving for p_rgh, Initial residual = 3.19493e-06, Final residual = 5.48526e-08, No Iterations 1
GAMG:  Solving for p_rgh, Initial residual = 5.48524e-08, Final residual = 5.22297e-09, No Iterations 3
time step continuity errors : sum local = 8.17779e-08, global = 5.44996e-08, cumulative = 7.4208e-06
ExecutionTime = 4.42 s  ClockTime = 27 s

Courant Number mean: 0.0254539 max: 0.196034
Interface Courant Number mean: 0.00160996 max: 0.192884
deltaT = 0.0146017
Time = 0.397788

PIMPLE: iteration 1
smoothSolver:  Solving for alpha.water, Initial residual = 0.000466328, Final residual = 4.59851e-10, No Iterations 2
Phase-1 volume fraction = 0.539491  Min(alpha.water) = 0  Max(alpha.water) = 1.00001
MULES: Correcting alpha.water
Phase-1 volume fraction = 0.539491  Min(alpha.water) = 0  Max(alpha.water) = 1.00001
Relaxing time: 0 s
DILUPBiCGStab:  Solving for Ux, Initial residual = 0.00456164, Final residual = 1.5835e-10, No Iterations 2
DILUPBiCGStab:  Solving for Uz, Initial residual = 0.0164574, Final residual = 3.83215e-10, No Iterations 2
GAMG:  Solving for p_rgh, Initial residual = 0.00219086, Final residual = 3.89487e-08, No Iterations 6
GAMG:  Solving for p_rgh, Initial residual = 3.88961e-08, Final residual = 3.88961e-08, No Iterations 0
time step continuity errors : sum local = 6.091e-07, global = -2.40369e-07, cumulative = 7.18043e-06
GAMG:  Solving for p_rgh, Initial residual = 8.20528e-05, Final residual = 8.35263e-08, No Iterations 3
GAMG:  Solving for p_rgh, Initial residual = 8.35292e-08, Final residual = 8.35292e-08, No Iterations 0
time step continuity errors : sum local = 1.30795e-06, global = 9.50304e-07, cumulative = 8.13074e-06
GAMG:  Solving for p_rgh, Initial residual = 3.26439e-06, Final residual = 5.17546e-08, No Iterations 1
GAMG:  Solving for p_rgh, Initial residual = 5.17537e-08, Final residual = 7.83004e-09, No Iterations 2
time step continuity errors : sum local = 1.2261e-07, global = 9.42444e-08, cumulative = 8.22498e-06
ExecutionTime = 4.5 s  ClockTime = 28 s

Courant Number mean: 0.0256395 max: 0.197333
Interface Courant Number mean: 0.00171486 max: 0.197333
deltaT = 0.0146017
Time = 0.41239

PIMPLE: iteration 1
smoothSolver:  Solving for alpha.water, Initial residual = 0.000470058, Final residual = 5.1085e-10, No Iterations 2
Phase-1 volume fraction = 0.539837  Min(alpha.water) = 0  Max(alpha.water) = 1.00001
MULES: Correcting alpha.water
Phase-1 volume fraction = 0.539837  Min(alpha.water) = 0  Max(alpha.water) = 1.00001
Relaxing time: 0 s
DILUPBiCGStab:  Solving for Ux, Initial residual = 0.0045829, Final residual = 1.58029e-10, No Iterations 2
DILUPBiCGStab:  Solving for Uz, Initial residual = 0.016512, Final residual = 3.20008e-10, No Iterations 2
GAMG:  Solving for p_rgh, Initial residual = 0.00219269, Final residual = 3.86023e-08, No Iterations 6
GAMG:  Solving for p_rgh, Initial residual = 3.85531e-08, Final residual = 3.85531e-08, No Iterations 0
time step continuity errors : sum local = 6.03557e-07, global = -2.1291e-07, cumulative = 8.01207e-06
GAMG:  Solving for p_rgh, Initial residual = 8.11714e-05, Final residual = 7.7595e-08, No Iterations 3
GAMG:  Solving for p_rgh, Initial residual = 7.75962e-08, Final residual = 7.75962e-08, No Iterations 0
time step continuity errors : sum local = 1.21473e-06, global = 8.28172e-07, cumulative = 8.84024e-06
GAMG:  Solving for p_rgh, Initial residual = 3.1768e-06, Final residual = 4.83819e-08, No Iterations 1
GAMG:  Solving for p_rgh, Initial residual = 4.83807e-08, Final residual = 5.95285e-09, No Iterations 2
time step continuity errors : sum local = 9.31909e-08, global = 6.34528e-08, cumulative = 8.90369e-06
ExecutionTime = 4.58 s  ClockTime = 29 s

Courant Number mean: 0.0258298 max: 0.196813
Interface Courant Number mean: 0.00167546 max: 0.196813
deltaT = 0.0146017
Time = 0.426991

PIMPLE: iteration 1
smoothSolver:  Solving for alpha.water, Initial residual = 0.000473851, Final residual = 5.70526e-10, No Iterations 2
Phase-1 volume fraction = 0.540179  Min(alpha.water) = 0  Max(alpha.water) = 1.00001
MULES: Correcting alpha.water
Phase-1 volume fraction = 0.540179  Min(alpha.water) = 0  Max(alpha.water) = 1.00001
Relaxing time: 0.01 s
DILUPBiCGStab:  Solving for Ux, Initial residual = 0.0046011, Final residual = 1.58084e-10, No Iterations 2
DILUPBiCGStab:  Solving for Uz, Initial residual = 0.0166086, Final residual = 3.04311e-10, No Iterations 2
GAMG:  Solving for p_rgh, Initial residual = 0.00217699, Final residual = 4.1162e-08, No Iterations 6
GAMG:  Solving for p_rgh, Initial residual = 4.11167e-08, Final residual = 4.11167e-08, No Iterations 0
time step continuity errors : sum local = 6.44128e-07, global = -2.27808e-07, cumulative = 8.67589e-06
GAMG:  Solving for p_rgh, Initial residual = 8.03066e-05, Final residual = 7.34831e-08, No Iterations 3
GAMG:  Solving for p_rgh, Initial residual = 7.34849e-08, Final residual = 7.34849e-08, No Iterations 0
time step continuity errors : sum local = 1.15114e-06, global = 7.54986e-07, cumulative = 9.43087e-06
GAMG:  Solving for p_rgh, Initial residual = 3.19225e-06, Final residual = 4.82772e-08, No Iterations 1
GAMG:  Solving for p_rgh, Initial residual = 4.82762e-08, Final residual = 5.81305e-09, No Iterations 2
time step continuity errors : sum local = 9.10629e-08, global = 6.15744e-08, cumulative = 9.49245e-06
ExecutionTime = 4.66 s  ClockTime = 30 s

Courant Number mean: 0.0260057 max: 0.194999
Interface Courant Number mean: 0.00168804 max: 0.194999
deltaT = 0.0146017
Time = 0.441593

PIMPLE: iteration 1
smoothSolver:  Solving for alpha.water, Initial residual = 0.000477502, Final residual = 6.3868e-10, No Iterations 2
Phase-1 volume fraction = 0.540517  Min(alpha.water) = 0  Max(alpha.water) = 1.00001
MULES: Correcting alpha.water
Phase-1 volume fraction = 0.540517  Min(alpha.water) = 0  Max(alpha.water) = 1.00001
Relaxing time: 0 s
DILUPBiCGStab:  Solving for Ux, Initial residual = 0.00459573, Final residual = 1.58235e-10, No Iterations 2
DILUPBiCGStab:  Solving for Uz, Initial residual = 0.0167308, Final residual = 2.9935e-10, No Iterations 2
GAMG:  Solving for p_rgh, Initial residual = 0.00238686, Final residual = 5.56449e-08, No Iterations 6
GAMG:  Solving for p_rgh, Initial residual = 5.5589e-08, Final residual = 5.5589e-08, No Iterations 0
time step continuity errors : sum local = 8.72822e-07, global = -3.47755e-07, cumulative = 9.14469e-06
GAMG:  Solving for p_rgh, Initial residual = 8.43101e-05, Final residual = 8.01031e-08, No Iterations 3
GAMG:  Solving for p_rgh, Initial residual = 8.01048e-08, Final residual = 8.01048e-08, No Iterations 0
time step continuity errors : sum local = 1.25769e-06, global = 8.40222e-07, cumulative = 9.98491e-06
GAMG:  Solving for p_rgh, Initial residual = 3.44999e-06, Final residual = 5.20641e-08, No Iterations 1
GAMG:  Solving for p_rgh, Initial residual = 5.20631e-08, Final residual = 6.67104e-09, No Iterations 2
time step continuity errors : sum local = 1.04741e-07, global = 6.98503e-08, cumulative = 1.00548e-05
ExecutionTime = 4.74 s  ClockTime = 31 s

Courant Number mean: 0.0263048 max: 0.196827
Interface Courant Number mean: 0.00166236 max: 0.192738
deltaT = 0.0146017
Time = 0.456195

PIMPLE: iteration 1
smoothSolver:  Solving for alpha.water, Initial residual = 0.000481158, Final residual = 7.11645e-10, No Iterations 2
Phase-1 volume fraction = 0.540853  Min(alpha.water) = 0  Max(alpha.water) = 1.00001
MULES: Correcting alpha.water
Phase-1 volume fraction = 0.540853  Min(alpha.water) = 0  Max(alpha.water) = 1.00001
Relaxing time: 0.01 s
DILUPBiCGStab:  Solving for Ux, Initial residual = 0.00459542, Final residual = 1.5798e-10, No Iterations 2
DILUPBiCGStab:  Solving for Uz, Initial residual = 0.0168465, Final residual = 2.97006e-10, No Iterations 2
GAMG:  Solving for p_rgh, Initial residual = 0.00245751, Final residual = 5.51953e-08, No Iterations 6
GAMG:  Solving for p_rgh, Initial residual = 5.51432e-08, Final residual = 5.51432e-08, No Iterations 0
time step continuity errors : sum local = 8.65288e-07, global = -4.40276e-07, cumulative = 9.61449e-06
GAMG:  Solving for p_rgh, Initial residual = 8.81879e-05, Final residual = 8.58899e-08, No Iterations 3
GAMG:  Solving for p_rgh, Initial residual = 8.58857e-08, Final residual = 8.58857e-08, No Iterations 0
time step continuity errors : sum local = 1.34771e-06, global = 9.48262e-07, cumulative = 1.05628e-05
GAMG:  Solving for p_rgh, Initial residual = 3.5533e-06, Final residual = 5.30934e-08, No Iterations 1
GAMG:  Solving for p_rgh, Initial residual = 5.30926e-08, Final residual = 8.51902e-09, No Iterations 2
time step continuity errors : sum local = 1.33682e-07, global = 9.83638e-08, cumulative = 1.06611e-05
ExecutionTime = 4.82 s  ClockTime = 31 s

Courant Number mean: 0.0265225 max: 0.197739
Interface Courant Number mean: 0.00176045 max: 0.197739
deltaT = 0.0146017
Time = 0.470797

PIMPLE: iteration 1
smoothSolver:  Solving for alpha.water, Initial residual = 0.000485764, Final residual = 7.88664e-10, No Iterations 2
Phase-1 volume fraction = 0.541185  Min(alpha.water) = 0  Max(alpha.water) = 1.00001
MULES: Correcting alpha.water
Phase-1 volume fraction = 0.541185  Min(alpha.water) = 0  Max(alpha.water) = 1.00001
Relaxing time: 0 s
DILUPBiCGStab:  Solving for Ux, Initial residual = 0.00460647, Final residual = 1.57851e-10, No Iterations 2
DILUPBiCGStab:  Solving for Uz, Initial residual = 0.0169058, Final residual = 3.03472e-10, No Iterations 2
GAMG:  Solving for p_rgh, Initial residual = 0.00246782, Final residual = 5.4481e-08, No Iterations 6
GAMG:  Solving for p_rgh, Initial residual = 5.44347e-08, Final residual = 5.44347e-08, No Iterations 0
time step continuity errors : sum local = 8.53371e-07, global = -4.20983e-07, cumulative = 1.02401e-05
GAMG:  Solving for p_rgh, Initial residual = 8.90214e-05, Final residual = 8.23985e-08, No Iterations 3
GAMG:  Solving for p_rgh, Initial residual = 8.23916e-08, Final residual = 8.23916e-08, No Iterations 0
time step continuity errors : sum local = 1.29172e-06, global = 8.73428e-07, cumulative = 1.11136e-05
GAMG:  Solving for p_rgh, Initial residual = 3.64618e-06, Final residual = 5.16703e-08, No Iterations 1
GAMG:  Solving for p_rgh, Initial residual = 5.16693e-08, Final residual = 7.26727e-09, No Iterations 2
time step continuity errors : sum local = 1.13937e-07, global = 7.74423e-08, cumulative = 1.1191e-05
ExecutionTime = 4.9 s  ClockTime = 32 s

Courant Number mean: 0.0267138 max: 0.197524
Interface Courant Number mean: 0.00173826 max: 0.197524
deltaT = 0.0146017
Time = 0.485398

PIMPLE: iteration 1
smoothSolver:  Solving for alpha.water, Initial residual = 0.000490345, Final residual = 8.69819e-10, No Iterations 2
Phase-1 volume fraction = 0.541513  Min(alpha.water) = 0  Max(alpha.water) = 1.00001
MULES: Correcting alpha.water
Phase-1 volume fraction = 0.541513  Min(alpha.water) = 0  Max(alpha.water) = 1.00001
Relaxing time: 0.01 s
DILUPBiCGStab:  Solving for Ux, Initial residual = 0.00462933, Final residual = 1.58021e-10, No Iterations 2
DILUPBiCGStab:  Solving for Uz, Initial residual = 0.016976, Final residual = 3.29457e-10, No Iterations 2
GAMG:  Solving for p_rgh, Initial residual = 0.00244963, Final residual = 5.3878e-08, No Iterations 6
GAMG:  Solving for p_rgh, Initial residual = 5.38399e-08, Final residual = 5.38399e-08, No Iterations 0
time step continuity errors : sum local = 8.43673e-07, global = -3.94148e-07, cumulative = 1.07969e-05
GAMG:  Solving for p_rgh, Initial residual = 8.80508e-05, Final residual = 7.93254e-08, No Iterations 3
GAMG:  Solving for p_rgh, Initial residual = 7.93184e-08, Final residual = 7.93184e-08, No Iterations 0
time step continuity errors : sum local = 1.24299e-06, global = 8.13862e-07, cumulative = 1.16107e-05
GAMG:  Solving for p_rgh, Initial residual = 3.54247e-06, Final residual = 5.18256e-08, No Iterations 1
GAMG:  Solving for p_rgh, Initial residual = 5.18247e-08, Final residual = 7.25105e-09, No Iterations 2
time step continuity errors : sum local = 1.13632e-07, global = 7.59242e-08, cumulative = 1.16866e-05
ExecutionTime = 4.98 s  ClockTime = 33 s

Courant Number mean: 0.0268831 max: 0.196829
Interface Courant Number mean: 0.00173094 max: 0.196071
deltaT = 0.0146017
Time = 0.5

PIMPLE: iteration 1
smoothSolver:  Solving for alpha.water, Initial residual = 0.000494579, Final residual = 9.56286e-10, No Iterations 2
Phase-1 volume fraction = 0.541838  Min(alpha.water) = 0  Max(alpha.water) = 1.00001
MULES: Correcting alpha.water
Phase-1 volume fraction = 0.541838  Min(alpha.water) = 0  Max(alpha.water) = 1.00001
Relaxing time: 0 s
DILUPBiCGStab:  Solving for Ux, Initial residual = 0.00463006, Final residual = 1.58151e-10, No Iterations 2
DILUPBiCGStab:  Solving for Uz, Initial residual = 0.0170831, Final residual = 3.85969e-10, No Iterations 2
GAMG:  Solving for p_rgh, Initial residual = 0.00252372, Final residual = 6.86996e-08, No Iterations 6
GAMG:  Solving for p_rgh, Initial residual = 6.86511e-08, Final residual = 6.86511e-08, No Iterations 0
time step continuity errors : sum local = 1.07625e-06, global = -4.54153e-07, cumulative = 1.12325e-05
GAMG:  Solving for p_rgh, Initial residual = 9.00399e-05, Final residual = 8.29567e-08, No Iterations 3
GAMG:  Solving for p_rgh, Initial residual = 8.29495e-08, Final residual = 8.29495e-08, No Iterations 0
time step continuity errors : sum local = 1.30048e-06, global = 8.54872e-07, cumulative = 1.20874e-05
GAMG:  Solving for p_rgh, Initial residual = 3.53866e-06, Final residual = 5.35639e-08, No Iterations 1
GAMG:  Solving for p_rgh, Initial residual = 5.35631e-08, Final residual = 7.90787e-09, No Iterations 2
time step continuity errors : sum local = 1.23982e-07, global = 8.09363e-08, cumulative = 1.21683e-05
ExecutionTime = 5.07 s  ClockTime = 34 s

Courant Number mean: 0.0270408 max: 0.198613
Interface Courant Number mean: 0.00175269 max: 0.198613
deltaT = 0.0147059
Time = 0.514706

PIMPLE: iteration 1
smoothSolver:  Solving for alpha.water, Initial residual = 0.000502231, Final residual = 1.08505e-09, No Iterations 2
Phase-1 volume fraction = 0.542162  Min(alpha.water) = 0  Max(alpha.water) = 1.00001
MULES: Correcting alpha.water
Phase-1 volume fraction = 0.542162  Min(alpha.water) = 0  Max(alpha.water) = 1.00001
Relaxing time: 0 s
DILUPBiCGStab:  Solving for Ux, Initial residual = 0.00467341, Final residual = 1.64823e-10, No Iterations 2
DILUPBiCGStab:  Solving for Uz, Initial residual = 0.0173611, Final residual = 5.09378e-10, No Iterations 2
GAMG:  Solving for p_rgh, Initial residual = 0.00268105, Final residual = 8.05475e-08, No Iterations 6
GAMG:  Solving for p_rgh, Initial residual = 8.05037e-08, Final residual = 8.05037e-08, No Iterations 0
time step continuity errors : sum local = 1.28058e-06, global = -4.81683e-07, cumulative = 1.16866e-05
GAMG:  Solving for p_rgh, Initial residual = 9.41781e-05, Final residual = 8.36934e-08, No Iterations 3
GAMG:  Solving for p_rgh, Initial residual = 8.36822e-08, Final residual = 8.36822e-08, No Iterations 0
time step continuity errors : sum local = 1.33128e-06, global = 8.22211e-07, cumulative = 1.25088e-05
GAMG:  Solving for p_rgh, Initial residual = 3.79939e-06, Final residual = 5.29e-08, No Iterations 1
GAMG:  Solving for p_rgh, Initial residual = 5.28988e-08, Final residual = 7.09943e-09, No Iterations 2
time step continuity errors : sum local = 1.12946e-07, global = 6.59929e-08, cumulative = 1.25748e-05
ExecutionTime = 5.15 s  ClockTime = 35 s

Courant Number mean: 0.0273861 max: 0.200731
Interface Courant Number mean: 0.00180086 max: 0.200731
deltaT = 0.0147059
Time = 0.529412

PIMPLE: iteration 1
smoothSolver:  Solving for alpha.water, Initial residual = 0.000507599, Final residual = 1.18998e-09, No Iterations 2
Phase-1 volume fraction = 0.542482  Min(alpha.water) = 0  Max(alpha.water) = 1.00001
MULES: Correcting alpha.water
Phase-1 volume fraction = 0.542482  Min(alpha.water) = 0  Max(alpha.water) = 1.00001
Relaxing time: 0 s
DILUPBiCGStab:  Solving for Ux, Initial residual = 0.00469597, Final residual = 1.67273e-10, No Iterations 2
DILUPBiCGStab:  Solving for Uz, Initial residual = 0.0174263, Final residual = 7.44553e-10, No Iterations 2
GAMG:  Solving for p_rgh, Initial residual = 0.0027484, Final residual = 6.86073e-08, No Iterations 6
GAMG:  Solving for p_rgh, Initial residual = 6.85768e-08, Final residual = 6.85768e-08, No Iterations 0
time step continuity errors : sum local = 1.09e-06, global = -4.40755e-07, cumulative = 1.21341e-05
GAMG:  Solving for p_rgh, Initial residual = 9.46314e-05, Final residual = 7.91763e-08, No Iterations 3
GAMG:  Solving for p_rgh, Initial residual = 7.91642e-08, Final residual = 7.91642e-08, No Iterations 0
time step continuity errors : sum local = 1.25843e-06, global = 7.54246e-07, cumulative = 1.28883e-05
GAMG:  Solving for p_rgh, Initial residual = 4.00358e-06, Final residual = 5.27211e-08, No Iterations 1
GAMG:  Solving for p_rgh, Initial residual = 5.27197e-08, Final residual = 6.23356e-09, No Iterations 2
time step continuity errors : sum local = 9.90942e-08, global = 5.67045e-08, cumulative = 1.2945e-05
ExecutionTime = 5.23 s  ClockTime = 36 s

Courant Number mean: 0.027523 max: 0.200119
Interface Courant Number mean: 0.00184409 max: 0.200119
deltaT = 0.0147059
Time = 0.544118

PIMPLE: iteration 1
smoothSolver:  Solving for alpha.water, Initial residual = 0.000512179, Final residual = 1.26997e-09, No Iterations 2
Phase-1 volume fraction = 0.542799  Min(alpha.water) = 0  Max(alpha.water) = 1.00001
MULES: Correcting alpha.water
Phase-1 volume fraction = 0.542799  Min(alpha.water) = 0  Max(alpha.water) = 1.00001
Relaxing time: 0 s
[...]
Phase-1 volume fraction = 0.500059  Min(alpha.water) = 0  Max(alpha.water) = 1.00014
MULES: Correcting alpha.water
Phase-1 volume fraction = 0.500059  Min(alpha.water) = 0  Max(alpha.water) = 1.00014
Relaxing time: 0.01 s
DILUPBiCGStab:  Solving for Ux, Initial residual = 0.0214491, Final residual = 2.13401e-10, No Iterations 2
DILUPBiCGStab:  Solving for Uz, Initial residual = 0.0825295, Final residual = 5.58069e-10, No Iterations 2
GAMG:  Solving for p_rgh, Initial residual = 0.000432326, Final residual = 6.55007e-08, No Iterations 5
GAMG:  Solving for p_rgh, Initial residual = 6.54777e-08, Final residual = 6.54777e-08, No Iterations 0
time step continuity errors : sum local = 5.073e-06, global = -1.40222e-06, cumulative = 0.000393009
GAMG:  Solving for p_rgh, Initial residual = 2.6516e-06, Final residual = 3.82015e-08, No Iterations 2
GAMG:  Solving for p_rgh, Initial residual = 3.82019e-08, Final residual = 3.82019e-08, No Iterations 0
time step continuity errors : sum local = 2.95973e-06, global = -6.96407e-07, cumulative = 0.000392313
GAMG:  Solving for p_rgh, Initial residual = 7.01454e-08, Final residual = 7.01454e-08, No Iterations 0
GAMG:  Solving for p_rgh, Initial residual = 7.01454e-08, Final residual = 7.77324e-09, No Iterations 2
time step continuity errors : sum local = 6.02239e-07, global = -1.66648e-07, cumulative = 0.000392146
ExecutionTime = 106.21 s  ClockTime = 586 s

Courant Number mean: 0.00642393 max: 0.0899389
Interface Courant Number mean: 0.000541055 max: 0.0813429
deltaT = 0.0357143
Time = 14.5

PIMPLE: iteration 1
smoothSolver:  Solving for alpha.water, Initial residual = 6.93596e-05, Final residual = 3.94256e-11, No Iterations 2
Phase-1 volume fraction = 0.500077  Min(alpha.water) = 0  Max(alpha.water) = 1.00014
MULES: Correcting alpha.water
Phase-1 volume fraction = 0.500077  Min(alpha.water) = 0  Max(alpha.water) = 1.00014
Relaxing time: 0.02 s
DILUPBiCGStab:  Solving for Ux, Initial residual = 0.0196843, Final residual = 2.12296e-10, No Iterations 2
DILUPBiCGStab:  Solving for Uz, Initial residual = 0.0811564, Final residual = 8.479e-11, No Iterations 2
GAMG:  Solving for p_rgh, Initial residual = 0.000380388, Final residual = 5.24942e-08, No Iterations 5
GAMG:  Solving for p_rgh, Initial residual = 5.24789e-08, Final residual = 5.24789e-08, No Iterations 0
time step continuity errors : sum local = 4.08922e-06, global = -8.80251e-07, cumulative = 0.000391266
GAMG:  Solving for p_rgh, Initial residual = 2.32936e-06, Final residual = 2.8421e-08, No Iterations 2
GAMG:  Solving for p_rgh, Initial residual = 2.84213e-08, Final residual = 2.84213e-08, No Iterations 0
time step continuity errors : sum local = 2.2146e-06, global = -3.81561e-07, cumulative = 0.000390884
GAMG:  Solving for p_rgh, Initial residual = 4.80302e-08, Final residual = 4.80302e-08, No Iterations 0
GAMG:  Solving for p_rgh, Initial residual = 4.80302e-08, Final residual = 5.18133e-09, No Iterations 2
time step continuity errors : sum local = 4.03732e-07, global = -5.98373e-08, cumulative = 0.000390824
ExecutionTime = 106.31 s  ClockTime = 586 s

Courant Number mean: 0.00639518 max: 0.0891031
Interface Courant Number mean: 0.000520832 max: 0.0810949
deltaT = 0.0416667
Time = 14.5417

PIMPLE: iteration 1
smoothSolver:  Solving for alpha.water, Initial residual = 7.61371e-05, Final residual = 6.98267e-11, No Iterations 2
Phase-1 volume fraction = 0.500092  Min(alpha.water) = 0  Max(alpha.water) = 1.00014
MULES: Correcting alpha.water
Phase-1 volume fraction = 0.500092  Min(alpha.water) = 0  Max(alpha.water) = 1.00014
Relaxing time: 0.01 s
DILUPBiCGStab:  Solving for Ux, Initial residual = 0.0218946, Final residual = 3.59583e-10, No Iterations 2
DILUPBiCGStab:  Solving for Uz, Initial residual = 0.0995707, Final residual = 1.49212e-10, No Iterations 2
GAMG:  Solving for p_rgh, Initial residual = 0.00033985, Final residual = 3.3671e-08, No Iterations 5
GAMG:  Solving for p_rgh, Initial residual = 3.36623e-08, Final residual = 3.36623e-08, No Iterations 0
time step continuity errors : sum local = 3.58286e-06, global = 1.90422e-07, cumulative = 0.000391015
GAMG:  Solving for p_rgh, Initial residual = 2.92075e-06, Final residual = 2.55197e-08, No Iterations 2
GAMG:  Solving for p_rgh, Initial residual = 2.552e-08, Final residual = 2.552e-08, No Iterations 0
time step continuity errors : sum local = 2.7162e-06, global = 2.71139e-07, cumulative = 0.000391286
GAMG:  Solving for p_rgh, Initial residual = 5.63279e-08, Final residual = 5.63279e-08, No Iterations 0
GAMG:  Solving for p_rgh, Initial residual = 5.63279e-08, Final residual = 4.40193e-09, No Iterations 2
time step continuity errors : sum local = 4.68516e-07, global = 8.37957e-08, cumulative = 0.00039137
ExecutionTime = 106.4 s  ClockTime = 587 s

Courant Number mean: 0.00743627 max: 0.10486
Interface Courant Number mean: 0.000609121 max: 0.0950564
deltaT = 0.0509259
Time = 14.5926

PIMPLE: iteration 1
smoothSolver:  Solving for alpha.water, Initial residual = 9.06881e-05, Final residual = 1.40658e-10, No Iterations 2
Phase-1 volume fraction = 0.500104  Min(alpha.water) = 0  Max(alpha.water) = 1.00014
MULES: Correcting alpha.water
Phase-1 volume fraction = 0.500104  Min(alpha.water) = 0  Max(alpha.water) = 1.00014
Relaxing time: 0.02 s
DILUPBiCGStab:  Solving for Ux, Initial residual = 0.0264035, Final residual = 7.50082e-10, No Iterations 2
DILUPBiCGStab:  Solving for Uz, Initial residual = 0.133567, Final residual = 3.87154e-10, No Iterations 2
GAMG:  Solving for p_rgh, Initial residual = 0.000343122, Final residual = 6.18433e-08, No Iterations 4
GAMG:  Solving for p_rgh, Initial residual = 6.1828e-08, Final residual = 6.1828e-08, No Iterations 0
time step continuity errors : sum local = 9.85091e-06, global = 4.28869e-06, cumulative = 0.000395658
GAMG:  Solving for p_rgh, Initial residual = 4.57787e-06, Final residual = 3.6198e-08, No Iterations 2
GAMG:  Solving for p_rgh, Initial residual = 3.61991e-08, Final residual = 3.61991e-08, No Iterations 0
time step continuity errors : sum local = 5.76734e-06, global = 2.66636e-06, cumulative = 0.000398325
GAMG:  Solving for p_rgh, Initial residual = 1.02339e-07, Final residual = 1.57211e-08, No Iterations 1
GAMG:  Solving for p_rgh, Initial residual = 1.57213e-08, Final residual = 5.4613e-09, No Iterations 1
time step continuity errors : sum local = 8.70098e-07, global = 7.00345e-07, cumulative = 0.000399025
ExecutionTime = 106.48 s  ClockTime = 588 s

Courant Number mean: 0.0090728 max: 0.12893
Interface Courant Number mean: 0.000746479 max: 0.116982
deltaT = 0.0582011
Time = 14.6508

PIMPLE: iteration 1
smoothSolver:  Solving for alpha.water, Initial residual = 0.000103683, Final residual = 2.17805e-10, No Iterations 2
Phase-1 volume fraction = 0.500114  Min(alpha.water) = 0  Max(alpha.water) = 1.00013
MULES: Correcting alpha.water
Phase-1 volume fraction = 0.500114  Min(alpha.water) = 0  Max(alpha.water) = 1.00013
Relaxing time: 0.02 s
DILUPBiCGStab:  Solving for Ux, Initial residual = 0.0307219, Final residual = 2.42756e-11, No Iterations 2
DILUPBiCGStab:  Solving for Uz, Initial residual = 0.165433, Final residual = 6.68029e-10, No Iterations 2
GAMG:  Solving for p_rgh, Initial residual = 0.000395071, Final residual = 6.3848e-08, No Iterations 4
GAMG:  Solving for p_rgh, Initial residual = 6.38354e-08, Final residual = 6.38354e-08, No Iterations 0
time step continuity errors : sum local = 1.33053e-05, global = 8.11607e-06, cumulative = 0.000407141
GAMG:  Solving for p_rgh, Initial residual = 6.40122e-06, Final residual = 5.47091e-08, No Iterations 2
GAMG:  Solving for p_rgh, Initial residual = 5.4711e-08, Final residual = 5.4711e-08, No Iterations 0
time step continuity errors : sum local = 1.14031e-05, global = 5.49007e-06, cumulative = 0.000412631
GAMG:  Solving for p_rgh, Initial residual = 1.7021e-07, Final residual = 2.61276e-08, No Iterations 1
GAMG:  Solving for p_rgh, Initial residual = 2.6128e-08, Final residual = 8.77931e-09, No Iterations 1
time step continuity errors : sum local = 1.82979e-06, global = 1.60233e-06, cumulative = 0.000414234
ExecutionTime = 106.57 s  ClockTime = 588 s

Courant Number mean: 0.0103565 max: 0.147083
Interface Courant Number mean: 0.000855793 max: 0.133028
deltaT = 0.0698413
Time = 14.7206

PIMPLE: iteration 1
smoothSolver:  Solving for alpha.water, Initial residual = 0.000126548, Final residual = 3.7754e-10, No Iterations 2
Phase-1 volume fraction = 0.500122  Min(alpha.water) = 0  Max(alpha.water) = 1.00011
MULES: Correcting alpha.water
Phase-1 volume fraction = 0.500122  Min(alpha.water) = 0  Max(alpha.water) = 1.00011
Relaxing time: 0.01 s
DILUPBiCGStab:  Solving for Ux, Initial residual = 0.0395483, Final residual = 5.69343e-11, No Iterations 2
DILUPBiCGStab:  Solving for Uz, Initial residual = 0.223102, Final residual = 5.59829e-11, No Iterations 3
GAMG:  Solving for p_rgh, Initial residual = 0.00054303, Final residual = 4.35676e-08, No Iterations 5
GAMG:  Solving for p_rgh, Initial residual = 4.35631e-08, Final residual = 4.35631e-08, No Iterations 0
time step continuity errors : sum local = 1.307e-05, global = 9.33251e-06, cumulative = 0.000423566
GAMG:  Solving for p_rgh, Initial residual = 9.91716e-06, Final residual = 8.09245e-08, No Iterations 2
GAMG:  Solving for p_rgh, Initial residual = 8.09259e-08, Final residual = 8.09259e-08, No Iterations 0
time step continuity errors : sum local = 2.42793e-05, global = 7.11064e-06, cumulative = 0.000430677
GAMG:  Solving for p_rgh, Initial residual = 3.01676e-07, Final residual = 4.16918e-08, No Iterations 1
GAMG:  Solving for p_rgh, Initial residual = 4.1692e-08, Final residual = 4.59433e-09, No Iterations 2
time step continuity errors : sum local = 1.37838e-06, global = 1.26275e-06, cumulative = 0.00043194
ExecutionTime = 106.65 s  ClockTime = 589 s

Courant Number mean: 0.0124996 max: 0.175631
Interface Courant Number mean: 0.00100388 max: 0.156532
deltaT = 0.0698413
Time = 14.7905

PIMPLE: iteration 1
smoothSolver:  Solving for alpha.water, Initial residual = 0.000135259, Final residual = 3.2164e-10, No Iterations 2
Phase-1 volume fraction = 0.500125  Min(alpha.water) = 0  Max(alpha.water) = 1.00011
MULES: Correcting alpha.water
Phase-1 volume fraction = 0.500125  Min(alpha.water) = 0  Max(alpha.water) = 1.00011
Relaxing time: 0.02 s
DILUPBiCGStab:  Solving for Ux, Initial residual = 0.0431389, Final residual = 4.80475e-11, No Iterations 2
DILUPBiCGStab:  Solving for Uz, Initial residual = 0.229025, Final residual = 5.11779e-11, No Iterations 3
GAMG:  Solving for p_rgh, Initial residual = 0.000662387, Final residual = 6.74943e-08, No Iterations 5
GAMG:  Solving for p_rgh, Initial residual = 6.74969e-08, Final residual = 6.74969e-08, No Iterations 0
time step continuity errors : sum local = 2.02616e-05, global = 1.38661e-05, cumulative = 0.000445806
GAMG:  Solving for p_rgh, Initial residual = 1.11866e-05, Final residual = 9.91893e-08, No Iterations 2
GAMG:  Solving for p_rgh, Initial residual = 9.91906e-08, Final residual = 9.91906e-08, No Iterations 0
time step continuity errors : sum local = 2.97751e-05, global = 9.8612e-06, cumulative = 0.000455667
GAMG:  Solving for p_rgh, Initial residual = 3.73706e-07, Final residual = 5.73718e-08, No Iterations 1
GAMG:  Solving for p_rgh, Initial residual = 5.7372e-08, Final residual = 5.84123e-09, No Iterations 2
time step continuity errors : sum local = 1.75342e-06, global = 1.62971e-06, cumulative = 0.000457297
ExecutionTime = 106.75 s  ClockTime = 590 s

Courant Number mean: 0.0129293 max: 0.250937
Interface Courant Number mean: 0.0010468 max: 0.250937
deltaT = 0.052381
Time = 14.8429

PIMPLE: iteration 1
smoothSolver:  Solving for alpha.water, Initial residual = 0.000117088, Final residual = 9.376e-11, No Iterations 2
Phase-1 volume fraction = 0.500126  Min(alpha.water) = 0  Max(alpha.water) = 1.00011
MULES: Correcting alpha.water
Phase-1 volume fraction = 0.500126  Min(alpha.water) = 0  Max(alpha.water) = 1.00011
Relaxing time: 0 s
DILUPBiCGStab:  Solving for Ux, Initial residual = 0.0345116, Final residual = 5.25883e-11, No Iterations 2
DILUPBiCGStab:  Solving for Uz, Initial residual = 0.148898, Final residual = 1.70027e-10, No Iterations 3
GAMG:  Solving for p_rgh, Initial residual = 0.000561674, Final residual = 6.91704e-08, No Iterations 5
GAMG:  Solving for p_rgh, Initial residual = 6.91796e-08, Final residual = 6.91796e-08, No Iterations 0
time step continuity errors : sum local = 1.17196e-05, global = 6.77855e-06, cumulative = 0.000464075
GAMG:  Solving for p_rgh, Initial residual = 7.36209e-06, Final residual = 9.57817e-08, No Iterations 2
GAMG:  Solving for p_rgh, Initial residual = 9.57823e-08, Final residual = 9.57823e-08, No Iterations 0
time step continuity errors : sum local = 1.62262e-05, global = 4.62264e-06, cumulative = 0.000468698
GAMG:  Solving for p_rgh, Initial residual = 3.5185e-07, Final residual = 6.94118e-08, No Iterations 1
GAMG:  Solving for p_rgh, Initial residual = 6.94119e-08, Final residual = 6.73142e-09, No Iterations 2
time step continuity errors : sum local = 1.14035e-06, global = 1.05164e-06, cumulative = 0.000469749
ExecutionTime = 106.83 s  ClockTime = 591 s

Courant Number mean: 0.00986582 max: 0.248528
Interface Courant Number mean: 0.000795306 max: 0.248528
deltaT = 0.0392857
Time = 14.8821

PIMPLE: iteration 1
smoothSolver:  Solving for alpha.water, Initial residual = 9.49268e-05, Final residual = 2.85391e-11, No Iterations 2
Phase-1 volume fraction = 0.500138  Min(alpha.water) = 0  Max(alpha.water) = 1.00011
MULES: Correcting alpha.water
Phase-1 volume fraction = 0.500138  Min(alpha.water) = 0  Max(alpha.water) = 1.00011
Relaxing time: 0.01 s
DILUPBiCGStab:  Solving for Ux, Initial residual = 0.0258049, Final residual = 9.22111e-10, No Iterations 2
DILUPBiCGStab:  Solving for Uz, Initial residual = 0.0873017, Final residual = 2.35099e-11, No Iterations 3
GAMG:  Solving for p_rgh, Initial residual = 0.000292954, Final residual = 5.56138e-08, No Iterations 4
GAMG:  Solving for p_rgh, Initial residual = 5.56066e-08, Final residual = 5.56066e-08, No Iterations 0
time step continuity errors : sum local = 5.3227e-06, global = -1.07501e-06, cumulative = 0.000468674
GAMG:  Solving for p_rgh, Initial residual = 3.21134e-06, Final residual = 2.82472e-08, No Iterations 2
GAMG:  Solving for p_rgh, Initial residual = 2.82478e-08, Final residual = 2.82478e-08, No Iterations 0
time step continuity errors : sum local = 2.70384e-06, global = -2.89768e-07, cumulative = 0.000468385
GAMG:  Solving for p_rgh, Initial residual = 7.33986e-08, Final residual = 7.33986e-08, No Iterations 0
GAMG:  Solving for p_rgh, Initial residual = 7.33986e-08, Final residual = 2.69954e-09, No Iterations 2
time step continuity errors : sum local = 2.58397e-07, global = -2.26983e-08, cumulative = 0.000468362
ExecutionTime = 106.9 s  ClockTime = 592 s

Courant Number mean: 0.00715725 max: 0.143752
Interface Courant Number mean: 0.000603166 max: 0.143752
deltaT = 0.0392857
Time = 14.9214

PIMPLE: iteration 1
smoothSolver:  Solving for alpha.water, Initial residual = 8.75229e-05, Final residual = 2.56088e-11, No Iterations 2
Phase-1 volume fraction = 0.500156  Min(alpha.water) = 0  Max(alpha.water) = 1.00011
MULES: Correcting alpha.water
Phase-1 volume fraction = 0.500156  Min(alpha.water) = 0  Max(alpha.water) = 1.00011
Relaxing time: 0.01 s
DILUPBiCGStab:  Solving for Ux, Initial residual = 0.0259207, Final residual = 6.06819e-10, No Iterations 2
DILUPBiCGStab:  Solving for Uz, Initial residual = 0.0953886, Final residual = 5.57754e-11, No Iterations 3
GAMG:  Solving for p_rgh, Initial residual = 0.000402678, Final residual = 4.08366e-08, No Iterations 5
GAMG:  Solving for p_rgh, Initial residual = 4.08249e-08, Final residual = 4.08249e-08, No Iterations 0
time step continuity errors : sum local = 3.91784e-06, global = -1.48051e-06, cumulative = 0.000466881
GAMG:  Solving for p_rgh, Initial residual = 3.75276e-06, Final residual = 3.97602e-08, No Iterations 2
GAMG:  Solving for p_rgh, Initial residual = 3.97606e-08, Final residual = 3.97606e-08, No Iterations 0
time step continuity errors : sum local = 3.81566e-06, global = -6.79925e-07, cumulative = 0.000466201
GAMG:  Solving for p_rgh, Initial residual = 1.09759e-07, Final residual = 2.53682e-08, No Iterations 1
GAMG:  Solving for p_rgh, Initial residual = 2.53683e-08, Final residual = 6.38537e-09, No Iterations 1
time step continuity errors : sum local = 6.12774e-07, global = -3.2497e-07, cumulative = 0.000465877
ExecutionTime = 106.98 s  ClockTime = 592 s

Courant Number mean: 0.00700813 max: 0.106639
Interface Courant Number mean: 0.000596527 max: 0.106639
deltaT = 0.0392857
Time = 14.9607

PIMPLE: iteration 1
smoothSolver:  Solving for alpha.water, Initial residual = 8.11249e-05, Final residual = 2.40796e-11, No Iterations 2
Phase-1 volume fraction = 0.500174  Min(alpha.water) = 0  Max(alpha.water) = 1.00011
MULES: Correcting alpha.water
Phase-1 volume fraction = 0.500174  Min(alpha.water) = 0  Max(alpha.water) = 1.00011
Relaxing time: 0.01 s
DILUPBiCGStab:  Solving for Ux, Initial residual = 0.0241795, Final residual = 4.35872e-10, No Iterations 2
DILUPBiCGStab:  Solving for Uz, Initial residual = 0.0954696, Final residual = 4.78628e-11, No Iterations 3
GAMG:  Solving for p_rgh, Initial residual = 0.00040041, Final residual = 4.26798e-08, No Iterations 5
GAMG:  Solving for p_rgh, Initial residual = 4.26677e-08, Final residual = 4.26677e-08, No Iterations 0
time step continuity errors : sum local = 4.10127e-06, global = -1.7498e-06, cumulative = 0.000464127
GAMG:  Solving for p_rgh, Initial residual = 3.49159e-06, Final residual = 3.4147e-08, No Iterations 2
GAMG:  Solving for p_rgh, Initial residual = 3.41473e-08, Final residual = 3.41473e-08, No Iterations 0
time step continuity errors : sum local = 3.28225e-06, global = -8.63194e-07, cumulative = 0.000463264
GAMG:  Solving for p_rgh, Initial residual = 8.44108e-08, Final residual = 8.44108e-08, No Iterations 0
GAMG:  Solving for p_rgh, Initial residual = 8.44108e-08, Final residual = 5.05235e-09, No Iterations 2
time step continuity errors : sum local = 4.85633e-07, global = -3.13962e-07, cumulative = 0.00046295
ExecutionTime = 107.06 s  ClockTime = 593 s

Courant Number mean: 0.00693312 max: 0.101825
Interface Courant Number mean: 0.000589879 max: 0.0943161
deltaT = 0.0392857
Time = 15

PIMPLE: iteration 1
smoothSolver:  Solving for alpha.water, Initial residual = 7.56897e-05, Final residual = 2.35033e-11, No Iterations 2
Phase-1 volume fraction = 0.50019  Min(alpha.water) = 0  Max(alpha.water) = 1.00011
MULES: Correcting alpha.water
Phase-1 volume fraction = 0.50019  Min(alpha.water) = 0  Max(alpha.water) = 1.00011
Relaxing time: 0.01 s
DILUPBiCGStab:  Solving for Ux, Initial residual = 0.0225479, Final residual = 3.16607e-10, No Iterations 2
DILUPBiCGStab:  Solving for Uz, Initial residual = 0.094807, Final residual = 4.40382e-11, No Iterations 3
GAMG:  Solving for p_rgh, Initial residual = 0.000390553, Final residual = 4.05758e-08, No Iterations 5
GAMG:  Solving for p_rgh, Initial residual = 4.05654e-08, Final residual = 4.05654e-08, No Iterations 0
time step continuity errors : sum local = 3.90221e-06, global = -1.68514e-06, cumulative = 0.000461264
GAMG:  Solving for p_rgh, Initial residual = 3.22493e-06, Final residual = 2.8638e-08, No Iterations 2
GAMG:  Solving for p_rgh, Initial residual = 2.86382e-08, Final residual = 2.86382e-08, No Iterations 0
time step continuity errors : sum local = 2.75485e-06, global = -8.56098e-07, cumulative = 0.000460408
GAMG:  Solving for p_rgh, Initial residual = 6.74018e-08, Final residual = 6.74018e-08, No Iterations 0
GAMG:  Solving for p_rgh, Initial residual = 6.74018e-08, Final residual = 3.93604e-09, No Iterations 2
time step continuity errors : sum local = 3.78626e-07, global = -2.61475e-07, cumulative = 0.000460147
ExecutionTime = 107.14 s  ClockTime = 594 s

End

Finalising parallel run
