/*---------------------------------------------------------------------------*\
| =========                 |                                                 |
| \\      /  F ield         | OpenFOAM: The Open Source CFD Toolbox           |
|  \\    /   O peration     | Version:  v1706                                 |
|   \\  /    A nd           | Web:      www.OpenFOAM.com                      |
|    \\/     M anipulation  |                                                 |
\*---------------------------------------------------------------------------*/
Build  : v1706
Arch   : "LSB;label=32;scalar=64"
Exec   : waveFoam -parallel
Date   : Oct 07 2019
Time   : 16:32:37
Host   : "cybrex"
PID    : 27477
Case   : /home/cybrex/OpenFOAM/cybrex-v1706/run/solitary/solitarySmall
nProcs : 16
Slaves : 
15
(
"cybrex.27478"
"cybrex.27479"
"cybrex.27480"
"cybrex.27481"
"cybrex.27482"
"cybrex.27483"
"cybrex.27484"
"cybrex.27485"
"cybrex.27486"
"cybrex.27487"
"cybrex.27488"
"cybrex.27489"
"cybrex.27490"
"cybrex.27491"
"cybrex.27492"
)

Pstream initialized with:
    floatTransfer      : 0
    nProcsSimpleSum    : 0
    commsType          : nonBlocking
    polling iterations : 0
sigFpe : Enabling floating point exception trapping (FOAM_SIGFPE).
fileModificationChecking : Monitoring run-time modified files using timeStampMaster (fileModificationSkew 10)
allowSystemOperations : Allowing user-supplied system call operations

// * * * * * * * * * * * * * * * * * * * * * * * * * * * * * * * * * * * * * //
Create time

Create mesh for time = 0

// using new solver syntax:
pcorr
{
    solver          GAMG;
    tolerance       1e-07;
    relTol          0;
    smoother        DIC;
    nPreSweeps      0;
    nPostSweeps     2;
    nFinestSweeps   2;
    cacheAgglomeration true;
    nCellsInCoarsestLevel 10;
    agglomerator    faceAreaPair;
    mergeLevels     1;
}

// using new solver syntax:
pcorrFinal
{
    solver          GAMG;
    tolerance       1e-07;
    relTol          0;
    smoother        DIC;
    nPreSweeps      0;
    nPostSweeps     2;
    nFinestSweeps   2;
    cacheAgglomeration true;
    nCellsInCoarsestLevel 10;
    agglomerator    faceAreaPair;
    mergeLevels     1;
}

// using new solver syntax:
p_rgh
{
    solver          GAMG;
    tolerance       1e-07;
    relTol          0;
    smoother        DIC;
    nPreSweeps      0;
    nPostSweeps     2;
    nFinestSweeps   2;
    cacheAgglomeration true;
    nCellsInCoarsestLevel 10;
    agglomerator    faceAreaPair;
    mergeLevels     1;
}

// using new solver syntax:
p_rghFinal
{
    solver          GAMG;
    tolerance       1e-08;
    relTol          0;
    smoother        DIC;
    nPreSweeps      0;
    nPostSweeps     2;
    nFinestSweeps   2;
    cacheAgglomeration true;
    nCellsInCoarsestLevel 10;
    agglomerator    faceAreaPair;
    mergeLevels     1;
}

// using new solver syntax:
U
{
    solver          PBiCG;
    preconditioner  DILU;
    tolerance       1e-09;
    relTol          0;
}

// using new solver syntax:
UFinal
{
    solver          PBiCGStab;
    preconditioner  DILU;
    tolerance       1e-09;
    relTol          0;
}

// using new solver syntax:
gamma
{
    solver          PBiCGStab;
    preconditioner  DILU;
    tolerance       1e-07;
    relTol          0;
}


PIMPLE: Operating solver in PISO mode


Reading g

Reading waveProperties

Reading waveProperties
Reading field p_rgh

Reading field U

Reading/calculating face flux field phi

Reading transportProperties

Selecting incompressible transport model Newtonian
Selecting incompressible transport model Newtonian
Selecting turbulence model type laminar
Selecting laminar stress model Stokes
No MRF models present

No finite volume options present

GAMG:  Solving for pcorr, Initial residual = 1, Final residual = 7.52663e-08, No Iterations 24
GAMG:  Solving for pcorr, Initial residual = 1.20352e-09, Final residual = 1.20352e-09, No Iterations 0
time step continuity errors : sum local = 1.07483e-12, global = -8.16612e-13, cumulative = -8.16612e-13
Courant Number mean: 0.00057822 max: 0.00743782

Starting time loop

Courant Number mean: 0.00057822 max: 0.00743782
Interface Courant Number mean: 2.05019e-05 max: 0.00743782
deltaT = 0.00119904
Time = 0.00119904

PIMPLE: iteration 1
smoothSolver:  Solving for alpha.water, Initial residual = 1.69083e-05, Final residual = 2.30617e-10, No Iterations 1
Phase-1 volume fraction = 0.514622  Min(alpha.water) = 0  Max(alpha.water) = 1
MULES: Correcting alpha.water
Phase-1 volume fraction = 0.514622  Min(alpha.water) = 0  Max(alpha.water) = 1
Relaxing time: 0.01 s
DILUPBiCGStab:  Solving for Ux, Initial residual = 0.000798328, Final residual = 1.1305e-10, No Iterations 1
DILUPBiCGStab:  Solving for Uz, Initial residual = 0.0683655, Final residual = 2.83909e-12, No Iterations 2
GAMG:  Solving for p_rgh, Initial residual = 0.482864, Final residual = 9.82527e-08, No Iterations 14
GAMG:  Solving for p_rgh, Initial residual = 1.17795e-07, Final residual = 5.36802e-08, No Iterations 1
time step continuity errors : sum local = 7.24242e-09, global = 6.61704e-09, cumulative = 6.61623e-09
GAMG:  Solving for p_rgh, Initial residual = 4.91392e-05, Final residual = 6.46293e-08, No Iterations 3
GAMG:  Solving for p_rgh, Initial residual = 6.4637e-08, Final residual = 6.4637e-08, No Iterations 0
time step continuity errors : sum local = 8.71921e-09, global = -4.14596e-09, cumulative = 2.47026e-09
GAMG:  Solving for p_rgh, Initial residual = 2.87222e-07, Final residual = 3.55089e-08, No Iterations 1
GAMG:  Solving for p_rgh, Initial residual = 3.55093e-08, Final residual = 5.996e-09, No Iterations 2
time step continuity errors : sum local = 8.08821e-10, global = 9.71408e-11, cumulative = 2.5674e-09
ExecutionTime = 0.59 s  ClockTime = 1 s

Courant Number mean: 0.000689497 max: 0.00903386
Interface Courant Number mean: 2.45656e-05 max: 0.00903386
deltaT = 0.00143747
Time = 0.00263651

PIMPLE: iteration 1
smoothSolver:  Solving for alpha.water, Initial residual = 2.02685e-05, Final residual = 2.85865e-10, No Iterations 1
Phase-1 volume fraction = 0.514641  Min(alpha.water) = 0  Max(alpha.water) = 1
MULES: Correcting alpha.water
Phase-1 volume fraction = 0.514641  Min(alpha.water) = 0  Max(alpha.water) = 1
Relaxing time: 0.02 s
DILUPBiCGStab:  Solving for Ux, Initial residual = 0.0035713, Final residual = 5.37617e-10, No Iterations 1
DILUPBiCGStab:  Solving for Uz, Initial residual = 0.0106306, Final residual = 5.09867e-12, No Iterations 2
GAMG:  Solving for p_rgh, Initial residual = 0.000269864, Final residual = 3.73366e-08, No Iterations 8
GAMG:  Solving for p_rgh, Initial residual = 3.9826e-08, Final residual = 3.9826e-08, No Iterations 0
time step continuity errors : sum local = 7.19186e-09, global = 6.67051e-09, cumulative = 9.23792e-09
GAMG:  Solving for p_rgh, Initial residual = 1.68829e-06, Final residual = 2.84056e-08, No Iterations 1
GAMG:  Solving for p_rgh, Initial residual = 2.8407e-08, Final residual = 2.8407e-08, No Iterations 0
time step continuity errors : sum local = 5.12955e-09, global = 2.10787e-09, cumulative = 1.13458e-08
GAMG:  Solving for p_rgh, Initial residual = 3.10164e-08, Final residual = 3.10164e-08, No Iterations 0
GAMG:  Solving for p_rgh, Initial residual = 3.10164e-08, Final residual = 8.59094e-09, No Iterations 1
time step continuity errors : sum local = 1.5513e-09, global = 1.11675e-09, cumulative = 1.24625e-08
ExecutionTime = 0.73 s  ClockTime = 1 s

Courant Number mean: 0.000825964 max: 0.0109198
Interface Courant Number mean: 3.03368e-05 max: 0.0109198
deltaT = 0.00172696
Time = 0.00436346

PIMPLE: iteration 1
smoothSolver:  Solving for alpha.water, Initial residual = 2.43519e-05, Final residual = 3.86153e-10, No Iterations 1
Phase-1 volume fraction = 0.514665  Min(alpha.water) = 0  Max(alpha.water) = 1
MULES: Correcting alpha.water
Phase-1 volume fraction = 0.514665  Min(alpha.water) = 0  Max(alpha.water) = 1
Relaxing time: 0.01 s
DILUPBiCGStab:  Solving for Ux, Initial residual = 0.00141342, Final residual = 4.0778e-10, No Iterations 1
DILUPBiCGStab:  Solving for Uz, Initial residual = 0.0028587, Final residual = 3.35282e-12, No Iterations 2
GAMG:  Solving for p_rgh, Initial residual = 0.00023112, Final residual = 5.85492e-08, No Iterations 4
GAMG:  Solving for p_rgh, Initial residual = 5.88707e-08, Final residual = 5.88707e-08, No Iterations 0
time step continuity errors : sum local = 1.5197e-08, global = 7.15031e-10, cumulative = 1.31776e-08
GAMG:  Solving for p_rgh, Initial residual = 9.52253e-07, Final residual = 2.88147e-08, No Iterations 1
GAMG:  Solving for p_rgh, Initial residual = 2.88237e-08, Final residual = 2.88237e-08, No Iterations 0
time step continuity errors : sum local = 7.43831e-09, global = 2.12062e-09, cumulative = 1.52982e-08
GAMG:  Solving for p_rgh, Initial residual = 3.45265e-08, Final residual = 3.45265e-08, No Iterations 0
GAMG:  Solving for p_rgh, Initial residual = 3.45265e-08, Final residual = 5.08458e-09, No Iterations 2
time step continuity errors : sum local = 1.31214e-09, global = 6.3271e-10, cumulative = 1.59309e-08
ExecutionTime = 0.86 s  ClockTime = 1 s

Courant Number mean: 0.000993158 max: 0.0132703
Interface Courant Number mean: 3.82681e-05 max: 0.0132074
deltaT = 0.00207379
Time = 0.00643726

PIMPLE: iteration 1
smoothSolver:  Solving for alpha.water, Initial residual = 2.92439e-05, Final residual = 5.37855e-10, No Iterations 1
Phase-1 volume fraction = 0.514693  Min(alpha.water) = 0  Max(alpha.water) = 1
MULES: Correcting alpha.water
Phase-1 volume fraction = 0.514693  Min(alpha.water) = 0  Max(alpha.water) = 1
Relaxing time: 0.02 s
DILUPBiCGStab:  Solving for Ux, Initial residual = 0.0010264, Final residual = 5.86047e-10, No Iterations 1
DILUPBiCGStab:  Solving for Uz, Initial residual = 0.00181014, Final residual = 3.31008e-12, No Iterations 2
GAMG:  Solving for p_rgh, Initial residual = 0.000257616, Final residual = 9.40916e-08, No Iterations 3
GAMG:  Solving for p_rgh, Initial residual = 9.42236e-08, Final residual = 9.42236e-08, No Iterations 0
time step continuity errors : sum local = 3.4903e-08, global = -2.51453e-09, cumulative = 1.34164e-08
GAMG:  Solving for p_rgh, Initial residual = 1.19946e-06, Final residual = 3.87498e-08, No Iterations 1
GAMG:  Solving for p_rgh, Initial residual = 3.87591e-08, Final residual = 3.87591e-08, No Iterations 0
time step continuity errors : sum local = 1.4354e-08, global = 8.22302e-10, cumulative = 1.42387e-08
GAMG:  Solving for p_rgh, Initial residual = 4.62215e-08, Final residual = 4.62215e-08, No Iterations 0
GAMG:  Solving for p_rgh, Initial residual = 4.62215e-08, Final residual = 5.39413e-09, No Iterations 2
time step continuity errors : sum local = 1.99766e-09, global = 5.39764e-10, cumulative = 1.47784e-08
ExecutionTime = 0.98 s  ClockTime = 1 s

Courant Number mean: 0.0011949 max: 0.0162474
Interface Courant Number mean: 4.76118e-05 max: 0.0159473
deltaT = 0.00249274
Time = 0.00893

PIMPLE: iteration 1
smoothSolver:  Solving for alpha.water, Initial residual = 3.5152e-05, Final residual = 7.62469e-10, No Iterations 1
Phase-1 volume fraction = 0.514727  Min(alpha.water) = 0  Max(alpha.water) = 1
MULES: Correcting alpha.water
Phase-1 volume fraction = 0.514727  Min(alpha.water) = 0  Max(alpha.water) = 1
Relaxing time: 0.01 s
DILUPBiCGStab:  Solving for Ux, Initial residual = 0.00101534, Final residual = 9.57804e-10, No Iterations 1
DILUPBiCGStab:  Solving for Uz, Initial residual = 0.00151745, Final residual = 4.32514e-12, No Iterations 2
GAMG:  Solving for p_rgh, Initial residual = 0.000290445, Final residual = 6.95775e-08, No Iterations 3
GAMG:  Solving for p_rgh, Initial residual = 6.96023e-08, Final residual = 6.96023e-08, No Iterations 0
time step continuity errors : sum local = 3.71315e-08, global = -1.08997e-08, cumulative = 3.87872e-09
GAMG:  Solving for p_rgh, Initial residual = 1.56813e-06, Final residual = 3.61871e-08, No Iterations 1
GAMG:  Solving for p_rgh, Initial residual = 3.61902e-08, Final residual = 3.61902e-08, No Iterations 0
time step continuity errors : sum local = 1.93052e-08, global = -2.92885e-09, cumulative = 9.49862e-10
GAMG:  Solving for p_rgh, Initial residual = 4.58297e-08, Final residual = 4.58297e-08, No Iterations 0
GAMG:  Solving for p_rgh, Initial residual = 4.58297e-08, Final residual = 3.90186e-09, No Iterations 2
time step continuity errors : sum local = 2.08139e-09, global = 3.85844e-11, cumulative = 9.88446e-10
ExecutionTime = 1.07 s  ClockTime = 2 s

Courant Number mean: 0.00143946 max: 0.0200004
Interface Courant Number mean: 6.05329e-05 max: 0.0200004
deltaT = 0.00299433
Time = 0.0119243

PIMPLE: iteration 1
smoothSolver:  Solving for alpha.water, Initial residual = 4.22231e-05, Final residual = 1.08902e-09, No Iterations 1
Phase-1 volume fraction = 0.514767  Min(alpha.water) = 0  Max(alpha.water) = 1
MULES: Correcting alpha.water
Phase-1 volume fraction = 0.514767  Min(alpha.water) = 0  Max(alpha.water) = 1
Relaxing time: 0.02 s
DILUPBiCGStab:  Solving for Ux, Initial residual = 0.00109343, Final residual = 7.18185e-12, No Iterations 2
DILUPBiCGStab:  Solving for Uz, Initial residual = 0.0014943, Final residual = 7.0542e-12, No Iterations 2
GAMG:  Solving for p_rgh, Initial residual = 0.000329887, Final residual = 6.69968e-08, No Iterations 3
GAMG:  Solving for p_rgh, Initial residual = 6.69898e-08, Final residual = 6.69898e-08, No Iterations 0
time step continuity errors : sum local = 5.14582e-08, global = -2.76794e-08, cumulative = -2.66909e-08
GAMG:  Solving for p_rgh, Initial residual = 2.14248e-06, Final residual = 4.41242e-08, No Iterations 1
GAMG:  Solving for p_rgh, Initial residual = 4.41255e-08, Final residual = 4.41255e-08, No Iterations 0
time step continuity errors : sum local = 3.3894e-08, global = -1.09863e-08, cumulative = -3.76772e-08
GAMG:  Solving for p_rgh, Initial residual = 5.78714e-08, Final residual = 5.78714e-08, No Iterations 0
GAMG:  Solving for p_rgh, Initial residual = 5.78714e-08, Final residual = 3.73928e-09, No Iterations 2
time step continuity errors : sum local = 2.87224e-09, global = -8.59245e-10, cumulative = -3.85365e-08
ExecutionTime = 1.18 s  ClockTime = 2 s

Courant Number mean: 0.00173319 max: 0.0245032
Interface Courant Number mean: 7.70405e-05 max: 0.0245032
deltaT = 0.00358879
Time = 0.0155131

PIMPLE: iteration 1
smoothSolver:  Solving for alpha.water, Initial residual = 5.06016e-05, Final residual = 1.56022e-09, No Iterations 1
Phase-1 volume fraction = 0.514816  Min(alpha.water) = 0  Max(alpha.water) = 1
MULES: Correcting alpha.water
Phase-1 volume fraction = 0.514816  Min(alpha.water) = 0  Max(alpha.water) = 1
Relaxing time: 0.02 s
DILUPBiCGStab:  Solving for Ux, Initial residual = 0.00122448, Final residual = 1.48427e-11, No Iterations 2
DILUPBiCGStab:  Solving for Uz, Initial residual = 0.0016537, Final residual = 1.31992e-11, No Iterations 2
GAMG:  Solving for p_rgh, Initial residual = 0.00037788, Final residual = 7.58169e-08, No Iterations 3
GAMG:  Solving for p_rgh, Initial residual = 7.57924e-08, Final residual = 7.57924e-08, No Iterations 0
time step continuity errors : sum local = 8.3511e-08, global = -6.18587e-08, cumulative = -1.00395e-07
GAMG:  Solving for p_rgh, Initial residual = 2.9383e-06, Final residual = 5.63438e-08, No Iterations 1
GAMG:  Solving for p_rgh, Initial residual = 5.63443e-08, Final residual = 5.63443e-08, No Iterations 0
time step continuity errors : sum local = 6.20817e-08, global = -2.63135e-08, cumulative = -1.26709e-07
GAMG:  Solving for p_rgh, Initial residual = 7.95574e-08, Final residual = 7.95574e-08, No Iterations 0
GAMG:  Solving for p_rgh, Initial residual = 7.95574e-08, Final residual = 4.26805e-09, No Iterations 2
time step continuity errors : sum local = 4.70266e-09, global = -2.52378e-09, cumulative = -1.29232e-07
ExecutionTime = 1.29 s  ClockTime = 2 s

Courant Number mean: 0.00208239 max: 0.0298615
Interface Courant Number mean: 9.43387e-05 max: 0.0298615
deltaT = 0.00428749
Time = 0.0198006

PIMPLE: iteration 1
smoothSolver:  Solving for alpha.water, Initial residual = 6.04464e-05, Final residual = 2.23512e-09, No Iterations 1
Phase-1 volume fraction = 0.514874  Min(alpha.water) = 0  Max(alpha.water) = 1
MULES: Correcting alpha.water
Phase-1 volume fraction = 0.514874  Min(alpha.water) = 0  Max(alpha.water) = 1
Relaxing time: 0.02 s
DILUPBiCGStab:  Solving for Ux, Initial residual = 0.00139899, Final residual = 3.02787e-11, No Iterations 2
DILUPBiCGStab:  Solving for Uz, Initial residual = 0.00201587, Final residual = 2.64233e-11, No Iterations 2
GAMG:  Solving for p_rgh, Initial residual = 0.000422483, Final residual = 9.36181e-08, No Iterations 3
GAMG:  Solving for p_rgh, Initial residual = 9.35757e-08, Final residual = 9.35757e-08, No Iterations 0
time step continuity errors : sum local = 1.46972e-07, global = -1.25535e-07, cumulative = -2.54768e-07
GAMG:  Solving for p_rgh, Initial residual = 3.92027e-06, Final residual = 7.07701e-08, No Iterations 1
GAMG:  Solving for p_rgh, Initial residual = 7.077e-08, Final residual = 7.077e-08, No Iterations 0
time step continuity errors : sum local = 1.11153e-07, global = -5.52763e-08, cumulative = -3.10044e-07
GAMG:  Solving for p_rgh, Initial residual = 1.04e-07, Final residual = 1.57892e-08, No Iterations 1
GAMG:  Solving for p_rgh, Initial residual = 1.57893e-08, Final residual = 5.34177e-09, No Iterations 1
time step continuity errors : sum local = 8.38985e-09, global = -5.91531e-09, cumulative = -3.15959e-07
ExecutionTime = 1.38 s  ClockTime = 2 s

Courant Number mean: 0.00249436 max: 0.0361506
Interface Courant Number mean: 0.000109482 max: 0.0361506
deltaT = 0.00516343
Time = 0.024964

PIMPLE: iteration 1
smoothSolver:  Solving for alpha.water, Initial residual = 7.27827e-05, Final residual = 3.27274e-09, No Iterations 1
Phase-1 volume fraction = 0.514944  Min(alpha.water) = 0  Max(alpha.water) = 1
MULES: Correcting alpha.water
Phase-1 volume fraction = 0.514944  Min(alpha.water) = 0  Max(alpha.water) = 1
Relaxing time: 0.02 s
DILUPBiCGStab:  Solving for Ux, Initial residual = 0.00163518, Final residual = 6.37983e-11, No Iterations 2
DILUPBiCGStab:  Solving for Uz, Initial residual = 0.00256871, Final residual = 5.69589e-11, No Iterations 2
GAMG:  Solving for p_rgh, Initial residual = 0.000474174, Final residual = 4.59602e-08, No Iterations 4
GAMG:  Solving for p_rgh, Initial residual = 4.59343e-08, Final residual = 4.59343e-08, No Iterations 0
time step continuity errors : sum local = 1.04512e-07, global = -9.30845e-08, cumulative = -4.09044e-07
GAMG:  Solving for p_rgh, Initial residual = 5.4753e-06, Final residual = 6.54308e-08, No Iterations 1
GAMG:  Solving for p_rgh, Initial residual = 6.54308e-08, Final residual = 6.54308e-08, No Iterations 0
time step continuity errors : sum local = 1.48871e-07, global = -1.34218e-08, cumulative = -4.22465e-07
GAMG:  Solving for p_rgh, Initial residual = 1.18602e-07, Final residual = 1.18103e-08, No Iterations 1
GAMG:  Solving for p_rgh, Initial residual = 1.18103e-08, Final residual = 3.09853e-09, No Iterations 1
time step continuity errors : sum local = 7.04991e-09, global = -8.20165e-10, cumulative = -4.23286e-07
ExecutionTime = 1.51 s  ClockTime = 2 s

Courant Number mean: 0.00301248 max: 0.043931
Interface Courant Number mean: 0.000142716 max: 0.043931
deltaT = 0.0061693
Time = 0.0311333

PIMPLE: iteration 1
smoothSolver:  Solving for alpha.water, Initial residual = 8.69375e-05, Final residual = 4.74576e-09, No Iterations 1
Phase-1 volume fraction = 0.515028  Min(alpha.water) = 0  Max(alpha.water) = 1
MULES: Correcting alpha.water
Phase-1 volume fraction = 0.515028  Min(alpha.water) = 0  Max(alpha.water) = 1
Relaxing time: 0.02 s
DILUPBiCGStab:  Solving for Ux, Initial residual = 0.00191388, Final residual = 1.30261e-10, No Iterations 2
DILUPBiCGStab:  Solving for Uz, Initial residual = 0.00329589, Final residual = 1.21484e-10, No Iterations 2
GAMG:  Solving for p_rgh, Initial residual = 0.000536322, Final residual = 5.76471e-08, No Iterations 4
GAMG:  Solving for p_rgh, Initial residual = 5.7608e-08, Final residual = 5.7608e-08, No Iterations 0
time step continuity errors : sum local = 1.86959e-07, global = -1.71971e-07, cumulative = -5.95256e-07
GAMG:  Solving for p_rgh, Initial residual = 7.71272e-06, Final residual = 8.92491e-08, No Iterations 1
GAMG:  Solving for p_rgh, Initial residual = 8.92488e-08, Final residual = 8.92488e-08, No Iterations 0
time step continuity errors : sum local = 2.89647e-07, global = -1.71138e-08, cumulative = -6.1237e-07
GAMG:  Solving for p_rgh, Initial residual = 1.70037e-07, Final residual = 1.71918e-08, No Iterations 1
GAMG:  Solving for p_rgh, Initial residual = 1.71918e-08, Final residual = 4.68042e-09, No Iterations 1
time step continuity errors : sum local = 1.51898e-08, global = -6.73224e-11, cumulative = -6.12438e-07
ExecutionTime = 1.63 s  ClockTime = 3 s

Courant Number mean: 0.00361015 max: 0.0527203
Interface Courant Number mean: 0.000172192 max: 0.0527203
deltaT = 0.00744233
Time = 0.0385757

PIMPLE: iteration 1
smoothSolver:  Solving for alpha.water, Initial residual = 0.000104838, Final residual = 7.0775e-09, No Iterations 1
Phase-1 volume fraction = 0.515129  Min(alpha.water) = 0  Max(alpha.water) = 1
MULES: Correcting alpha.water
Phase-1 volume fraction = 0.515129  Min(alpha.water) = 0  Max(alpha.water) = 1
Relaxing time: 0.01 s
DILUPBiCGStab:  Solving for Ux, Initial residual = 0.00227737, Final residual = 2.76701e-10, No Iterations 2
DILUPBiCGStab:  Solving for Uz, Initial residual = 0.00431961, Final residual = 2.71757e-10, No Iterations 2
GAMG:  Solving for p_rgh, Initial residual = 0.000613948, Final residual = 7.153e-08, No Iterations 4
GAMG:  Solving for p_rgh, Initial residual = 7.14711e-08, Final residual = 7.14711e-08, No Iterations 0
time step continuity errors : sum local = 3.37356e-07, global = -3.15516e-07, cumulative = -9.27954e-07
GAMG:  Solving for p_rgh, Initial residual = 1.14332e-05, Final residual = 2.35809e-08, No Iterations 2
GAMG:  Solving for p_rgh, Initial residual = 2.35807e-08, Final residual = 2.35807e-08, No Iterations 0
time step continuity errors : sum local = 1.11305e-07, global = 2.59889e-08, cumulative = -9.01965e-07
GAMG:  Solving for p_rgh, Initial residual = 2.10078e-07, Final residual = 1.04852e-08, No Iterations 1
GAMG:  Solving for p_rgh, Initial residual = 1.04852e-08, Final residual = 2.98994e-09, No Iterations 1
time step continuity errors : sum local = 1.41131e-08, global = 1.04067e-09, cumulative = -9.00925e-07
ExecutionTime = 1.79 s  ClockTime = 3 s

Courant Number mean: 0.00436973 max: 0.0635715
Interface Courant Number mean: 0.000213231 max: 0.0635715
deltaT = 0.00887354
Time = 0.0474492

PIMPLE: iteration 1
smoothSolver:  Solving for alpha.water, Initial residual = 0.000124932, Final residual = 4.41718e-16, No Iterations 2
Phase-1 volume fraction = 0.51525  Min(alpha.water) = 0  Max(alpha.water) = 1
MULES: Correcting alpha.water
Phase-1 volume fraction = 0.51525  Min(alpha.water) = 0  Max(alpha.water) = 1
Relaxing time: 0.02 s
DILUPBiCGStab:  Solving for Ux, Initial residual = 0.00268956, Final residual = 5.60809e-10, No Iterations 2
DILUPBiCGStab:  Solving for Uz, Initial residual = 0.0056059, Final residual = 5.80037e-10, No Iterations 2
GAMG:  Solving for p_rgh, Initial residual = 0.000684459, Final residual = 8.52903e-08, No Iterations 4
GAMG:  Solving for p_rgh, Initial residual = 8.52096e-08, Final residual = 8.52096e-08, No Iterations 0
time step continuity errors : sum local = 5.7142e-07, global = -5.39618e-07, cumulative = -1.44054e-06
GAMG:  Solving for p_rgh, Initial residual = 1.65422e-05, Final residual = 3.26906e-08, No Iterations 2
GAMG:  Solving for p_rgh, Initial residual = 3.26902e-08, Final residual = 3.26902e-08, No Iterations 0
time step continuity errors : sum local = 2.19225e-07, global = 8.02654e-08, cumulative = -1.36028e-06
GAMG:  Solving for p_rgh, Initial residual = 3.31866e-07, Final residual = 1.51739e-08, No Iterations 1
GAMG:  Solving for p_rgh, Initial residual = 1.51739e-08, Final residual = 4.69091e-09, No Iterations 1
time step continuity errors : sum local = 3.14578e-08, global = 8.96618e-09, cumulative = -1.35131e-06
ExecutionTime = 1.95 s  ClockTime = 3 s

Courant Number mean: 0.00522995 max: 0.0774165
Interface Courant Number mean: 0.000275526 max: 0.07549
deltaT = 0.0105244
Time = 0.0579737

PIMPLE: iteration 1
smoothSolver:  Solving for alpha.water, Initial residual = 0.00014806, Final residual = 9.50121e-16, No Iterations 2
Phase-1 volume fraction = 0.515393  Min(alpha.water) = 0  Max(alpha.water) = 1
MULES: Correcting alpha.water
Phase-1 volume fraction = 0.515393  Min(alpha.water) = 0  Max(alpha.water) = 1
Relaxing time: 0.02 s
DILUPBiCGStab:  Solving for Ux, Initial residual = 0.00317599, Final residual = 2.12252e-11, No Iterations 2
DILUPBiCGStab:  Solving for Uz, Initial residual = 0.00725283, Final residual = 1.97472e-11, No Iterations 2
GAMG:  Solving for p_rgh, Initial residual = 0.000721761, Final residual = 9.83044e-08, No Iterations 4
GAMG:  Solving for p_rgh, Initial residual = 9.81999e-08, Final residual = 9.81999e-08, No Iterations 0
time step continuity errors : sum local = 9.25545e-07, global = -8.77956e-07, cumulative = -2.22927e-06
GAMG:  Solving for p_rgh, Initial residual = 2.15126e-05, Final residual = 4.09229e-08, No Iterations 2
GAMG:  Solving for p_rgh, Initial residual = 4.09222e-08, Final residual = 4.09222e-08, No Iterations 0
time step continuity errors : sum local = 3.85702e-07, global = 1.59564e-07, cumulative = -2.0697e-06
GAMG:  Solving for p_rgh, Initial residual = 4.85335e-07, Final residual = 1.94239e-08, No Iterations 1
GAMG:  Solving for p_rgh, Initial residual = 1.94238e-08, Final residual = 6.31923e-09, No Iterations 1
time step continuity errors : sum local = 5.95604e-08, global = 2.13285e-08, cumulative = -2.04838e-06
ExecutionTime = 2.05 s  ClockTime = 3 s

Courant Number mean: 0.00622992 max: 0.0926543
Interface Courant Number mean: 0.000341181 max: 0.0888939
deltaT = 0.0126293
Time = 0.070603

PIMPLE: iteration 1
smoothSolver:  Solving for alpha.water, Initial residual = 0.000177589, Final residual = 1.57734e-15, No Iterations 2
Phase-1 volume fraction = 0.515564  Min(alpha.water) = 0  Max(alpha.water) = 1
MULES: Correcting alpha.water
Phase-1 volume fraction = 0.515564  Min(alpha.water) = 0  Max(alpha.water) = 1
Relaxing time: 0.02 s
DILUPBiCGStab:  Solving for Ux, Initial residual = 0.00382852, Final residual = 5.31486e-11, No Iterations 2
DILUPBiCGStab:  Solving for Uz, Initial residual = 0.00960488, Final residual = 5.18843e-11, No Iterations 2
GAMG:  Solving for p_rgh, Initial residual = 0.000783977, Final residual = 4.17088e-08, No Iterations 5
GAMG:  Solving for p_rgh, Initial residual = 4.16569e-08, Final residual = 4.16569e-08, No Iterations 0
time step continuity errors : sum local = 5.65026e-07, global = -5.20475e-07, cumulative = -2.56885e-06
GAMG:  Solving for p_rgh, Initial residual = 3.01415e-05, Final residual = 5.86326e-08, No Iterations 2
GAMG:  Solving for p_rgh, Initial residual = 5.86335e-08, Final residual = 5.86335e-08, No Iterations 0
time step continuity errors : sum local = 7.95278e-07, global = 6.72445e-07, cumulative = -1.89641e-06
GAMG:  Solving for p_rgh, Initial residual = 8.10244e-07, Final residual = 3.09332e-08, No Iterations 1
GAMG:  Solving for p_rgh, Initial residual = 3.09333e-08, Final residual = 3.51839e-09, No Iterations 2
time step continuity errors : sum local = 4.77216e-08, global = 3.83913e-08, cumulative = -1.85801e-06
ExecutionTime = 2.16 s  ClockTime = 3 s

Courant Number mean: 0.00751626 max: 0.11095
Interface Courant Number mean: 0.00040143 max: 0.105433
deltaT = 0.0148068
Time = 0.0854098

PIMPLE: iteration 1
smoothSolver:  Solving for alpha.water, Initial residual = 0.000208221, Final residual = 3.93606e-15, No Iterations 2
Phase-1 volume fraction = 0.515765  Min(alpha.water) = 0  Max(alpha.water) = 1
MULES: Correcting alpha.water
Phase-1 volume fraction = 0.515765  Min(alpha.water) = 0  Max(alpha.water) = 1
Relaxing time: 0.02 s
DILUPBiCGStab:  Solving for Ux, Initial residual = 0.00449136, Final residual = 1.18205e-10, No Iterations 2
DILUPBiCGStab:  Solving for Uz, Initial residual = 0.0123119, Final residual = 1.20507e-10, No Iterations 2
GAMG:  Solving for p_rgh, Initial residual = 0.000849936, Final residual = 3.96617e-08, No Iterations 5
GAMG:  Solving for p_rgh, Initial residual = 3.96128e-08, Final residual = 3.96128e-08, No Iterations 0
time step continuity errors : sum local = 7.38347e-07, global = -6.30933e-07, cumulative = -2.48895e-06
GAMG:  Solving for p_rgh, Initial residual = 4.14835e-05, Final residual = 8.02352e-08, No Iterations 2
GAMG:  Solving for p_rgh, Initial residual = 8.02384e-08, Final residual = 8.02384e-08, No Iterations 0
time step continuity errors : sum local = 1.4955e-06, global = 1.33079e-06, cumulative = -1.15816e-06
GAMG:  Solving for p_rgh, Initial residual = 1.35068e-06, Final residual = 4.31236e-08, No Iterations 1
GAMG:  Solving for p_rgh, Initial residual = 4.31239e-08, Final residual = 4.95712e-09, No Iterations 2
time step continuity errors : sum local = 9.23913e-08, global = 7.90902e-08, cumulative = -1.07907e-06
ExecutionTime = 2.39 s  ClockTime = 3 s

Courant Number mean: 0.00886259 max: 0.128808
Interface Courant Number mean: 0.00050265 max: 0.128808
deltaT = 0.0172746
Time = 0.102684

PIMPLE: iteration 1
smoothSolver:  Solving for alpha.water, Initial residual = 0.000243099, Final residual = 1.24734e-14, No Iterations 2
Phase-1 volume fraction = 0.515998  Min(alpha.water) = 0  Max(alpha.water) = 1
MULES: Correcting alpha.water
Phase-1 volume fraction = 0.515998  Min(alpha.water) = 0  Max(alpha.water) = 1
Relaxing time: 0.02 s
DILUPBiCGStab:  Solving for Ux, Initial residual = 0.00517632, Final residual = 2.55069e-10, No Iterations 2
DILUPBiCGStab:  Solving for Uz, Initial residual = 0.0159308, Final residual = 2.72808e-10, No Iterations 2
GAMG:  Solving for p_rgh, Initial residual = 0.000845718, Final residual = 4.34934e-08, No Iterations 5
GAMG:  Solving for p_rgh, Initial residual = 4.34314e-08, Final residual = 4.34314e-08, No Iterations 0
time step continuity errors : sum local = 1.10353e-06, global = -9.50583e-07, cumulative = -2.02965e-06
GAMG:  Solving for p_rgh, Initial residual = 5.17208e-05, Final residual = 9.83776e-08, No Iterations 2
GAMG:  Solving for p_rgh, Initial residual = 9.83841e-08, Final residual = 9.83841e-08, No Iterations 0
time step continuity errors : sum local = 2.49961e-06, global = 2.22973e-06, cumulative = 2.00078e-07
GAMG:  Solving for p_rgh, Initial residual = 2.06102e-06, Final residual = 5.37426e-08, No Iterations 1
GAMG:  Solving for p_rgh, Initial residual = 5.3743e-08, Final residual = 6.44753e-09, No Iterations 2
time step continuity errors : sum local = 1.63809e-07, global = 1.4227e-07, cumulative = 3.42349e-07
ExecutionTime = 2.54 s  ClockTime = 4 s

Courant Number mean: 0.0103868 max: 0.148385
Interface Courant Number mean: 0.000568397 max: 0.148385
deltaT = 0.0198658
Time = 0.12255

PIMPLE: iteration 1
smoothSolver:  Solving for alpha.water, Initial residual = 0.000280711, Final residual = 3.3942e-14, No Iterations 2
Phase-1 volume fraction = 0.516266  Min(alpha.water) = 0  Max(alpha.water) = 1
MULES: Correcting alpha.water
Phase-1 volume fraction = 0.516266  Min(alpha.water) = 0  Max(alpha.water) = 1
Relaxing time: 0.02 s
DILUPBiCGStab:  Solving for Ux, Initial residual = 0.00592975, Final residual = 5.12392e-10, No Iterations 2
DILUPBiCGStab:  Solving for Uz, Initial residual = 0.0200516, Final residual = 5.80508e-10, No Iterations 2
GAMG:  Solving for p_rgh, Initial residual = 0.000812561, Final residual = 4.25388e-08, No Iterations 5
GAMG:  Solving for p_rgh, Initial residual = 4.24813e-08, Final residual = 4.24813e-08, No Iterations 0
time step continuity errors : sum local = 1.42727e-06, global = -1.21532e-06, cumulative = -8.72969e-07
GAMG:  Solving for p_rgh, Initial residual = 5.69206e-05, Final residual = 4.37072e-08, No Iterations 3
GAMG:  Solving for p_rgh, Initial residual = 4.37078e-08, Final residual = 4.37078e-08, No Iterations 0
time step continuity errors : sum local = 1.46844e-06, global = 1.29845e-06, cumulative = 4.25485e-07
GAMG:  Solving for p_rgh, Initial residual = 2.65106e-06, Final residual = 2.47993e-08, No Iterations 1
GAMG:  Solving for p_rgh, Initial residual = 2.47992e-08, Final residual = 9.59477e-09, No Iterations 1
time step continuity errors : sum local = 3.22354e-07, global = 2.85513e-07, cumulative = 7.10999e-07
ExecutionTime = 2.68 s  ClockTime = 4 s

Courant Number mean: 0.0120532 max: 0.171295
Interface Courant Number mean: 0.000679619 max: 0.169887
deltaT = 0.0222029
Time = 0.144753

PIMPLE: iteration 1
smoothSolver:  Solving for alpha.water, Initial residual = 0.000314812, Final residual = 6.82998e-14, No Iterations 2
Phase-1 volume fraction = 0.516563  Min(alpha.water) = 0  Max(alpha.water) = 1
MULES: Correcting alpha.water
Phase-1 volume fraction = 0.516563  Min(alpha.water) = 0  Max(alpha.water) = 1
Relaxing time: 0.01 s
DILUPBiCGStab:  Solving for Ux, Initial residual = 0.00661181, Final residual = 8.9144e-10, No Iterations 2
DILUPBiCGStab:  Solving for Uz, Initial residual = 0.0240488, Final residual = 1.87769e-11, No Iterations 3
GAMG:  Solving for p_rgh, Initial residual = 0.00083873, Final residual = 4.69259e-08, No Iterations 5
GAMG:  Solving for p_rgh, Initial residual = 4.68612e-08, Final residual = 4.68612e-08, No Iterations 0
time step continuity errors : sum local = 1.96419e-06, global = -1.7486e-06, cumulative = -1.03761e-06
GAMG:  Solving for p_rgh, Initial residual = 5.7482e-05, Final residual = 4.35206e-08, No Iterations 3
GAMG:  Solving for p_rgh, Initial residual = 4.35218e-08, Final residual = 4.35218e-08, No Iterations 0
time step continuity errors : sum local = 1.82415e-06, global = 1.55322e-06, cumulative = 5.15613e-07
GAMG:  Solving for p_rgh, Initial residual = 2.97291e-06, Final residual = 2.54942e-08, No Iterations 1
GAMG:  Solving for p_rgh, Initial residual = 2.5494e-08, Final residual = 9.77036e-09, No Iterations 1
time step continuity errors : sum local = 4.09512e-07, global = 3.49537e-07, cumulative = 8.6515e-07
ExecutionTime = 2.8 s  ClockTime = 4 s

Courant Number mean: 0.0135921 max: 0.19678
Interface Courant Number mean: 0.000839817 max: 0.18774
deltaT = 0.0222029
Time = 0.166956

PIMPLE: iteration 1
smoothSolver:  Solving for alpha.water, Initial residual = 0.000316201, Final residual = 2.27962e-13, No Iterations 2
Phase-1 volume fraction = 0.516858  Min(alpha.water) = 0  Max(alpha.water) = 1
MULES: Correcting alpha.water
Phase-1 volume fraction = 0.516858  Min(alpha.water) = 0  Max(alpha.water) = 1
Relaxing time: 0.01 s
DILUPBiCGStab:  Solving for Ux, Initial residual = 0.00651881, Final residual = 8.87598e-10, No Iterations 2
DILUPBiCGStab:  Solving for Uz, Initial residual = 0.024171, Final residual = 1.89692e-11, No Iterations 3
GAMG:  Solving for p_rgh, Initial residual = 0.000866477, Final residual = 4.73623e-08, No Iterations 5
GAMG:  Solving for p_rgh, Initial residual = 4.73051e-08, Final residual = 4.73051e-08, No Iterations 0
time step continuity errors : sum local = 1.9821e-06, global = -1.84803e-06, cumulative = -9.82877e-07
GAMG:  Solving for p_rgh, Initial residual = 4.63371e-05, Final residual = 8.97911e-08, No Iterations 2
GAMG:  Solving for p_rgh, Initial residual = 8.97895e-08, Final residual = 8.97895e-08, No Iterations 0
time step continuity errors : sum local = 3.76225e-06, global = 2.96272e-06, cumulative = 1.97984e-06
GAMG:  Solving for p_rgh, Initial residual = 2.38796e-06, Final residual = 4.93271e-08, No Iterations 1
GAMG:  Solving for p_rgh, Initial residual = 4.93262e-08, Final residual = 6.16839e-09, No Iterations 2
time step continuity errors : sum local = 2.58465e-07, global = 1.84735e-07, cumulative = 2.16458e-06
ExecutionTime = 2.92 s  ClockTime = 4 s

Courant Number mean: 0.0137114 max: 0.201898
Interface Courant Number mean: 0.000873604 max: 0.199696
deltaT = 0.0222029
Time = 0.189159

PIMPLE: iteration 1
smoothSolver:  Solving for alpha.water, Initial residual = 0.000318024, Final residual = 4.2217e-14, No Iterations 2
Phase-1 volume fraction = 0.517151  Min(alpha.water) = 0  Max(alpha.water) = 1.00001
MULES: Correcting alpha.water
Phase-1 volume fraction = 0.517151  Min(alpha.water) = 0  Max(alpha.water) = 1.00001
Relaxing time: 0.02 s
DILUPBiCGStab:  Solving for Ux, Initial residual = 0.00643177, Final residual = 8.82937e-10, No Iterations 2
DILUPBiCGStab:  Solving for Uz, Initial residual = 0.0243456, Final residual = 1.90492e-11, No Iterations 3
GAMG:  Solving for p_rgh, Initial residual = 0.000920935, Final residual = 4.84666e-08, No Iterations 5
GAMG:  Solving for p_rgh, Initial residual = 4.84084e-08, Final residual = 4.84084e-08, No Iterations 0
time step continuity errors : sum local = 2.02829e-06, global = -1.91065e-06, cumulative = 2.5393e-07
GAMG:  Solving for p_rgh, Initial residual = 4.78453e-05, Final residual = 9.05406e-08, No Iterations 2
GAMG:  Solving for p_rgh, Initial residual = 9.05323e-08, Final residual = 9.05323e-08, No Iterations 0
time step continuity errors : sum local = 3.79358e-06, global = 2.74364e-06, cumulative = 2.99757e-06
GAMG:  Solving for p_rgh, Initial residual = 2.65368e-06, Final residual = 4.88923e-08, No Iterations 1
GAMG:  Solving for p_rgh, Initial residual = 4.88907e-08, Final residual = 3.95317e-09, No Iterations 2
time step continuity errors : sum local = 1.65656e-07, global = 7.10989e-08, cumulative = 3.06867e-06
ExecutionTime = 3.05 s  ClockTime = 4 s

Courant Number mean: 0.0138556 max: 0.203542
Interface Courant Number mean: 0.00088909 max: 0.199823
deltaT = 0.0222029
Time = 0.211362

PIMPLE: iteration 1
smoothSolver:  Solving for alpha.water, Initial residual = 0.000319466, Final residual = 8.29077e-13, No Iterations 2
Phase-1 volume fraction = 0.517441  Min(alpha.water) = 0  Max(alpha.water) = 1.00001
MULES: Correcting alpha.water
Phase-1 volume fraction = 0.517441  Min(alpha.water) = 0  Max(alpha.water) = 1.00001
Relaxing time: 0.02 s
DILUPBiCGStab:  Solving for Ux, Initial residual = 0.00639976, Final residual = 8.80692e-10, No Iterations 2
DILUPBiCGStab:  Solving for Uz, Initial residual = 0.024429, Final residual = 1.8971e-11, No Iterations 3
GAMG:  Solving for p_rgh, Initial residual = 0.00092063, Final residual = 4.21855e-08, No Iterations 5
GAMG:  Solving for p_rgh, Initial residual = 4.21467e-08, Final residual = 4.21467e-08, No Iterations 0
time step continuity errors : sum local = 1.76481e-06, global = -1.5655e-06, cumulative = 1.50317e-06
GAMG:  Solving for p_rgh, Initial residual = 4.59269e-05, Final residual = 8.6639e-08, No Iterations 2
GAMG:  Solving for p_rgh, Initial residual = 8.66325e-08, Final residual = 8.66325e-08, No Iterations 0
time step continuity errors : sum local = 3.62781e-06, global = 2.61478e-06, cumulative = 4.11795e-06
GAMG:  Solving for p_rgh, Initial residual = 2.38444e-06, Final residual = 4.64946e-08, No Iterations 1
GAMG:  Solving for p_rgh, Initial residual = 4.64931e-08, Final residual = 3.87471e-09, No Iterations 2
time step continuity errors : sum local = 1.62262e-07, global = 7.01147e-08, cumulative = 4.18806e-06
ExecutionTime = 3.15 s  ClockTime = 4 s

Courant Number mean: 0.0139952 max: 0.203201
Interface Courant Number mean: 0.000846085 max: 0.197816
deltaT = 0.0222029
Time = 0.233565

PIMPLE: iteration 1
smoothSolver:  Solving for alpha.water, Initial residual = 0.000322333, Final residual = 1.04789e-11, No Iterations 2
Phase-1 volume fraction = 0.517729  Min(alpha.water) = 0  Max(alpha.water) = 1.00001
MULES: Correcting alpha.water
Phase-1 volume fraction = 0.517729  Min(alpha.water) = 0  Max(alpha.water) = 1.00001
Relaxing time: 0.02 s
DILUPBiCGStab:  Solving for Ux, Initial residual = 0.00628178, Final residual = 8.72295e-10, No Iterations 2
DILUPBiCGStab:  Solving for Uz, Initial residual = 0.0247587, Final residual = 9.91501e-10, No Iterations 2
GAMG:  Solving for p_rgh, Initial residual = 0.000885793, Final residual = 4.54028e-08, No Iterations 5
GAMG:  Solving for p_rgh, Initial residual = 4.53617e-08, Final residual = 4.53617e-08, No Iterations 0
time step continuity errors : sum local = 1.89867e-06, global = -1.78688e-06, cumulative = 2.40119e-06
GAMG:  Solving for p_rgh, Initial residual = 4.27798e-05, Final residual = 7.9442e-08, No Iterations 2
GAMG:  Solving for p_rgh, Initial residual = 7.94356e-08, Final residual = 7.94356e-08, No Iterations 0
time step continuity errors : sum local = 3.32512e-06, global = 2.32795e-06, cumulative = 4.72914e-06
GAMG:  Solving for p_rgh, Initial residual = 2.16915e-06, Final residual = 4.27939e-08, No Iterations 1
GAMG:  Solving for p_rgh, Initial residual = 4.27927e-08, Final residual = 3.67509e-09, No Iterations 2
time step continuity errors : sum local = 1.53841e-07, global = 6.39014e-08, cumulative = 4.79304e-06
ExecutionTime = 3.25 s  ClockTime = 4 s

Courant Number mean: 0.0141163 max: 0.202023
Interface Courant Number mean: 0.000851112 max: 0.194695
deltaT = 0.0222029
Time = 0.255768

PIMPLE: iteration 1
smoothSolver:  Solving for alpha.water, Initial residual = 0.000325336, Final residual = 2.43769e-11, No Iterations 2
Phase-1 volume fraction = 0.518014  Min(alpha.water) = 0  Max(alpha.water) = 1.00002
MULES: Correcting alpha.water
Phase-1 volume fraction = 0.518014  Min(alpha.water) = 0  Max(alpha.water) = 1.00002
Relaxing time: 0.01 s
DILUPBiCGStab:  Solving for Ux, Initial residual = 0.0062026, Final residual = 8.65481e-10, No Iterations 2
DILUPBiCGStab:  Solving for Uz, Initial residual = 0.0249285, Final residual = 1.99864e-11, No Iterations 3
GAMG:  Solving for p_rgh, Initial residual = 0.000897573, Final residual = 4.57634e-08, No Iterations 5
GAMG:  Solving for p_rgh, Initial residual = 4.57265e-08, Final residual = 4.57265e-08, No Iterations 0
time step continuity errors : sum local = 1.91453e-06, global = -1.80989e-06, cumulative = 2.98315e-06
GAMG:  Solving for p_rgh, Initial residual = 4.11987e-05, Final residual = 7.46175e-08, No Iterations 2
GAMG:  Solving for p_rgh, Initial residual = 7.46082e-08, Final residual = 7.46082e-08, No Iterations 0
time step continuity errors : sum local = 3.12417e-06, global = 1.96389e-06, cumulative = 4.94703e-06
GAMG:  Solving for p_rgh, Initial residual = 2.01162e-06, Final residual = 3.93448e-08, No Iterations 1
GAMG:  Solving for p_rgh, Initial residual = 3.93433e-08, Final residual = 3.16877e-09, No Iterations 2
time step continuity errors : sum local = 1.32695e-07, global = 3.12551e-08, cumulative = 4.97829e-06
ExecutionTime = 3.41 s  ClockTime = 4 s

Courant Number mean: 0.0142349 max: 0.206098
Interface Courant Number mean: 0.000918724 max: 0.19133
deltaT = 0.0222029
Time = 0.277971

PIMPLE: iteration 1
smoothSolver:  Solving for alpha.water, Initial residual = 0.000328018, Final residual = 4.39764e-11, No Iterations 2
Phase-1 volume fraction = 0.518297  Min(alpha.water) = 0  Max(alpha.water) = 1.00002
MULES: Correcting alpha.water
Phase-1 volume fraction = 0.518297  Min(alpha.water) = 0  Max(alpha.water) = 1.00002
Relaxing time: 0.02 s
DILUPBiCGStab:  Solving for Ux, Initial residual = 0.00615004, Final residual = 8.60227e-10, No Iterations 2
DILUPBiCGStab:  Solving for Uz, Initial residual = 0.0250595, Final residual = 2.00283e-11, No Iterations 3
GAMG:  Solving for p_rgh, Initial residual = 0.000985365, Final residual = 4.36876e-08, No Iterations 5
GAMG:  Solving for p_rgh, Initial residual = 4.36531e-08, Final residual = 4.36531e-08, No Iterations 0
time step continuity errors : sum local = 1.82911e-06, global = -1.73339e-06, cumulative = 3.2449e-06
GAMG:  Solving for p_rgh, Initial residual = 4.31042e-05, Final residual = 7.67639e-08, No Iterations 2
GAMG:  Solving for p_rgh, Initial residual = 7.67528e-08, Final residual = 7.67528e-08, No Iterations 0
time step continuity errors : sum local = 3.21646e-06, global = 2.05651e-06, cumulative = 5.30141e-06
GAMG:  Solving for p_rgh, Initial residual = 2.07823e-06, Final residual = 3.99865e-08, No Iterations 1
GAMG:  Solving for p_rgh, Initial residual = 3.99852e-08, Final residual = 3.39852e-09, No Iterations 2
time step continuity errors : sum local = 1.42426e-07, global = 4.68963e-08, cumulative = 5.34831e-06
ExecutionTime = 3.58 s  ClockTime = 5 s

Courant Number mean: 0.0143578 max: 0.208289
Interface Courant Number mean: 0.000918919 max: 0.202002
deltaT = 0.0222029
Time = 0.300174

PIMPLE: iteration 1
smoothSolver:  Solving for alpha.water, Initial residual = 0.000331246, Final residual = 6.98307e-11, No Iterations 2
Phase-1 volume fraction = 0.518577  Min(alpha.water) = 0  Max(alpha.water) = 1.00002
MULES: Correcting alpha.water
Phase-1 volume fraction = 0.518577  Min(alpha.water) = 0  Max(alpha.water) = 1.00002
Relaxing time: 0.02 s
DILUPBiCGStab:  Solving for Ux, Initial residual = 0.00611411, Final residual = 8.55537e-10, No Iterations 2
DILUPBiCGStab:  Solving for Uz, Initial residual = 0.0252825, Final residual = 9.92892e-10, No Iterations 2
GAMG:  Solving for p_rgh, Initial residual = 0.00106473, Final residual = 4.61982e-08, No Iterations 5
GAMG:  Solving for p_rgh, Initial residual = 4.61619e-08, Final residual = 4.61619e-08, No Iterations 0
time step continuity errors : sum local = 1.93503e-06, global = -1.83747e-06, cumulative = 3.51084e-06
GAMG:  Solving for p_rgh, Initial residual = 4.45896e-05, Final residual = 7.93689e-08, No Iterations 2
GAMG:  Solving for p_rgh, Initial residual = 7.93572e-08, Final residual = 7.93572e-08, No Iterations 0
time step continuity errors : sum local = 3.32697e-06, global = 2.06562e-06, cumulative = 5.57646e-06
GAMG:  Solving for p_rgh, Initial residual = 2.11084e-06, Final residual = 4.11732e-08, No Iterations 1
GAMG:  Solving for p_rgh, Initial residual = 4.11716e-08, Final residual = 3.43933e-09, No Iterations 2
time step continuity errors : sum local = 1.44196e-07, global = 4.17739e-08, cumulative = 5.61823e-06
ExecutionTime = 3.73 s  ClockTime = 5 s

Courant Number mean: 0.0144919 max: 0.208492
Interface Courant Number mean: 0.000978444 max: 0.200069
deltaT = 0.0222029
Time = 0.322377

PIMPLE: iteration 1
smoothSolver:  Solving for alpha.water, Initial residual = 0.000335586, Final residual = 1.01744e-10, No Iterations 2
Phase-1 volume fraction = 0.518854  Min(alpha.water) = 0  Max(alpha.water) = 1.00003
MULES: Correcting alpha.water
Phase-1 volume fraction = 0.518854  Min(alpha.water) = 0  Max(alpha.water) = 1.00003
Relaxing time: 0.02 s
DILUPBiCGStab:  Solving for Ux, Initial residual = 0.00609433, Final residual = 8.523e-10, No Iterations 2
DILUPBiCGStab:  Solving for Uz, Initial residual = 0.0254637, Final residual = 1.87567e-11, No Iterations 3
GAMG:  Solving for p_rgh, Initial residual = 0.0010955, Final residual = 4.63738e-08, No Iterations 5
GAMG:  Solving for p_rgh, Initial residual = 4.63397e-08, Final residual = 4.63397e-08, No Iterations 0
time step continuity errors : sum local = 1.94168e-06, global = -1.83208e-06, cumulative = 3.78615e-06
GAMG:  Solving for p_rgh, Initial residual = 4.33036e-05, Final residual = 7.82113e-08, No Iterations 2
GAMG:  Solving for p_rgh, Initial residual = 7.82016e-08, Final residual = 7.82016e-08, No Iterations 0
time step continuity errors : sum local = 3.2771e-06, global = 2.10229e-06, cumulative = 5.88844e-06
GAMG:  Solving for p_rgh, Initial residual = 2.07003e-06, Final residual = 4.10687e-08, No Iterations 1
GAMG:  Solving for p_rgh, Initial residual = 4.10673e-08, Final residual = 3.49361e-09, No Iterations 2
time step continuity errors : sum local = 1.46408e-07, global = 4.7337e-08, cumulative = 5.93578e-06
ExecutionTime = 3.86 s  ClockTime = 5 s

Courant Number mean: 0.0146315 max: 0.205788
Interface Courant Number mean: 0.000941534 max: 0.197061
deltaT = 0.0222029
Time = 0.344579

PIMPLE: iteration 1
smoothSolver:  Solving for alpha.water, Initial residual = 0.000340878, Final residual = 1.46337e-10, No Iterations 2
Phase-1 volume fraction = 0.519128  Min(alpha.water) = 0  Max(alpha.water) = 1.00003
MULES: Correcting alpha.water
Phase-1 volume fraction = 0.519128  Min(alpha.water) = 0  Max(alpha.water) = 1.00003
Relaxing time: 0.01 s
DILUPBiCGStab:  Solving for Ux, Initial residual = 0.00610408, Final residual = 8.51455e-10, No Iterations 2
DILUPBiCGStab:  Solving for Uz, Initial residual = 0.0256869, Final residual = 1.89301e-11, No Iterations 3
GAMG:  Solving for p_rgh, Initial residual = 0.00109088, Final residual = 4.37366e-08, No Iterations 5
GAMG:  Solving for p_rgh, Initial residual = 4.37136e-08, Final residual = 4.37136e-08, No Iterations 0
time step continuity errors : sum local = 1.83009e-06, global = -1.67344e-06, cumulative = 4.26234e-06
GAMG:  Solving for p_rgh, Initial residual = 4.04056e-05, Final residual = 7.52541e-08, No Iterations 2
GAMG:  Solving for p_rgh, Initial residual = 7.52484e-08, Final residual = 7.52484e-08, No Iterations 0
time step continuity errors : sum local = 3.15053e-06, global = 2.06766e-06, cumulative = 6.32999e-06
GAMG:  Solving for p_rgh, Initial residual = 1.92038e-06, Final residual = 3.97778e-08, No Iterations 1
GAMG:  Solving for p_rgh, Initial residual = 3.97766e-08, Final residual = 3.80224e-09, No Iterations 2
time step continuity errors : sum local = 1.59198e-07, global = 6.75624e-08, cumulative = 6.39756e-06
ExecutionTime = 3.96 s  ClockTime = 5 s

Courant Number mean: 0.014761 max: 0.202755
Interface Courant Number mean: 0.000925719 max: 0.193417
deltaT = 0.0222029
Time = 0.366782

PIMPLE: iteration 1
smoothSolver:  Solving for alpha.water, Initial residual = 0.000345441, Final residual = 2.08846e-10, No Iterations 2
Phase-1 volume fraction = 0.519399  Min(alpha.water) = 0  Max(alpha.water) = 1.00003
MULES: Correcting alpha.water
Phase-1 volume fraction = 0.519399  Min(alpha.water) = 0  Max(alpha.water) = 1.00003
Relaxing time: 0.01 s
DILUPBiCGStab:  Solving for Ux, Initial residual = 0.00601033, Final residual = 8.44435e-10, No Iterations 2
DILUPBiCGStab:  Solving for Uz, Initial residual = 0.0259988, Final residual = 1.93948e-11, No Iterations 3
GAMG:  Solving for p_rgh, Initial residual = 0.00113162, Final residual = 9.9489e-08, No Iterations 4
GAMG:  Solving for p_rgh, Initial residual = 9.94474e-08, Final residual = 9.94474e-08, No Iterations 0
time step continuity errors : sum local = 4.16004e-06, global = -3.33443e-06, cumulative = 3.06312e-06
GAMG:  Solving for p_rgh, Initial residual = 3.98773e-05, Final residual = 7.18873e-08, No Iterations 2
GAMG:  Solving for p_rgh, Initial residual = 7.18772e-08, Final residual = 7.18772e-08, No Iterations 0
time step continuity errors : sum local = 3.00715e-06, global = 1.26649e-06, cumulative = 4.32961e-06
GAMG:  Solving for p_rgh, Initial residual = 1.9178e-06, Final residual = 3.66379e-08, No Iterations 1
GAMG:  Solving for p_rgh, Initial residual = 3.66362e-08, Final residual = 2.88517e-09, No Iterations 2
time step continuity errors : sum local = 1.20713e-07, global = -1.28233e-08, cumulative = 4.31679e-06
ExecutionTime = 4.07 s  ClockTime = 5 s

Courant Number mean: 0.0150375 max: 0.20517
Interface Courant Number mean: 0.00100312 max: 0.199818
deltaT = 0.0222029
Time = 0.388985

PIMPLE: iteration 1
smoothSolver:  Solving for alpha.water, Initial residual = 0.000348784, Final residual = 2.68789e-10, No Iterations 2
Phase-1 volume fraction = 0.519667  Min(alpha.water) = 0  Max(alpha.water) = 1.00003
MULES: Correcting alpha.water
Phase-1 volume fraction = 0.519667  Min(alpha.water) = 0  Max(alpha.water) = 1.00003
Relaxing time: 0.01 s
DILUPBiCGStab:  Solving for Ux, Initial residual = 0.00591794, Final residual = 8.34192e-10, No Iterations 2
DILUPBiCGStab:  Solving for Uz, Initial residual = 0.0262529, Final residual = 2.12324e-11, No Iterations 3
GAMG:  Solving for p_rgh, Initial residual = 0.0011841, Final residual = 9.71469e-08, No Iterations 4
GAMG:  Solving for p_rgh, Initial residual = 9.71024e-08, Final residual = 9.71024e-08, No Iterations 0
time step continuity errors : sum local = 4.0582e-06, global = -3.4328e-06, cumulative = 8.83987e-07
GAMG:  Solving for p_rgh, Initial residual = 4.92932e-05, Final residual = 8.16261e-08, No Iterations 2
GAMG:  Solving for p_rgh, Initial residual = 8.16127e-08, Final residual = 8.16127e-08, No Iterations 0
time step continuity errors : sum local = 3.41137e-06, global = 1.68067e-06, cumulative = 2.56466e-06
GAMG:  Solving for p_rgh, Initial residual = 2.40048e-06, Final residual = 4.13192e-08, No Iterations 1
GAMG:  Solving for p_rgh, Initial residual = 4.13173e-08, Final residual = 2.92749e-09, No Iterations 2
time step continuity errors : sum local = 1.22374e-07, global = -1.10607e-08, cumulative = 2.5536e-06
ExecutionTime = 4.17 s  ClockTime = 5 s

Courant Number mean: 0.0151877 max: 0.207598
Interface Courant Number mean: 0.00105489 max: 0.198154
deltaT = 0.0222029
Time = 0.411188

PIMPLE: iteration 1
smoothSolver:  Solving for alpha.water, Initial residual = 0.000351611, Final residual = 3.2551e-10, No Iterations 2
Phase-1 volume fraction = 0.519933  Min(alpha.water) = 0  Max(alpha.water) = 1.00004
MULES: Correcting alpha.water
Phase-1 volume fraction = 0.519933  Min(alpha.water) = 0  Max(alpha.water) = 1.00004
Relaxing time: 0.01 s
DILUPBiCGStab:  Solving for Ux, Initial residual = 0.00588478, Final residual = 8.2963e-10, No Iterations 2
DILUPBiCGStab:  Solving for Uz, Initial residual = 0.0263753, Final residual = 2.6527e-11, No Iterations 3
GAMG:  Solving for p_rgh, Initial residual = 0.00120351, Final residual = 9.84089e-08, No Iterations 4
GAMG:  Solving for p_rgh, Initial residual = 9.83658e-08, Final residual = 9.83658e-08, No Iterations 0
time step continuity errors : sum local = 4.10954e-06, global = -3.38815e-06, cumulative = -8.34553e-07
GAMG:  Solving for p_rgh, Initial residual = 5.02082e-05, Final residual = 8.32437e-08, No Iterations 2
GAMG:  Solving for p_rgh, Initial residual = 8.3229e-08, Final residual = 8.3229e-08, No Iterations 0
time step continuity errors : sum local = 3.47774e-06, global = 1.63888e-06, cumulative = 8.04324e-07
GAMG:  Solving for p_rgh, Initial residual = 2.4007e-06, Final residual = 4.21244e-08, No Iterations 1
GAMG:  Solving for p_rgh, Initial residual = 4.21222e-08, Final residual = 3.02005e-09, No Iterations 2
time step continuity errors : sum local = 1.262e-07, global = -1.24415e-08, cumulative = 7.91882e-07
ExecutionTime = 4.31 s  ClockTime = 6 s

Courant Number mean: 0.0153364 max: 0.208602
Interface Courant Number mean: 0.00100586 max: 0.196456
deltaT = 0.0222029
Time = 0.433391

PIMPLE: iteration 1
smoothSolver:  Solving for alpha.water, Initial residual = 0.000355127, Final residual = 3.92829e-10, No Iterations 2
Phase-1 volume fraction = 0.520195  Min(alpha.water) = 0  Max(alpha.water) = 1.00004
MULES: Correcting alpha.water
Phase-1 volume fraction = 0.520195  Min(alpha.water) = 0  Max(alpha.water) = 1.00004
Relaxing time: 0.02 s
DILUPBiCGStab:  Solving for Ux, Initial residual = 0.00587983, Final residual = 8.28666e-10, No Iterations 2
DILUPBiCGStab:  Solving for Uz, Initial residual = 0.0267365, Final residual = 2.41694e-11, No Iterations 3
GAMG:  Solving for p_rgh, Initial residual = 0.00119568, Final residual = 9.76817e-08, No Iterations 4
GAMG:  Solving for p_rgh, Initial residual = 9.76327e-08, Final residual = 9.76327e-08, No Iterations 0
time step continuity errors : sum local = 4.07628e-06, global = -3.30304e-06, cumulative = -2.51116e-06
GAMG:  Solving for p_rgh, Initial residual = 4.9083e-05, Final residual = 7.99694e-08, No Iterations 2
GAMG:  Solving for p_rgh, Initial residual = 7.99561e-08, Final residual = 7.99561e-08, No Iterations 0
time step continuity errors : sum local = 3.33879e-06, global = 1.47949e-06, cumulative = -1.03166e-06
GAMG:  Solving for p_rgh, Initial residual = 2.3491e-06, Final residual = 4.06256e-08, No Iterations 1
GAMG:  Solving for p_rgh, Initial residual = 4.06234e-08, Final residual = 2.95785e-09, No Iterations 2
time step continuity errors : sum local = 1.2352e-07, global = -2.05755e-08, cumulative = -1.05224e-06
ExecutionTime = 4.41 s  ClockTime = 6 s

Courant Number mean: 0.0154927 max: 0.207523
Interface Courant Number mean: 0.00102922 max: 0.19376
deltaT = 0.0222029
Time = 0.455594

PIMPLE: iteration 1
smoothSolver:  Solving for alpha.water, Initial residual = 0.000359941, Final residual = 4.69247e-10, No Iterations 2
Phase-1 volume fraction = 0.520452  Min(alpha.water) = 0  Max(alpha.water) = 1.00004
MULES: Correcting alpha.water
Phase-1 volume fraction = 0.520452  Min(alpha.water) = 0  Max(alpha.water) = 1.00004
Relaxing time: 0.01 s
DILUPBiCGStab:  Solving for Ux, Initial residual = 0.0059095, Final residual = 8.3166e-10, No Iterations 2
DILUPBiCGStab:  Solving for Uz, Initial residual = 0.0269865, Final residual = 2.45658e-11, No Iterations 3
GAMG:  Solving for p_rgh, Initial residual = 0.00115303, Final residual = 9.98467e-08, No Iterations 4
GAMG:  Solving for p_rgh, Initial residual = 9.98077e-08, Final residual = 9.98077e-08, No Iterations 0
time step continuity errors : sum local = 4.16317e-06, global = -3.1967e-06, cumulative = -4.24894e-06
GAMG:  Solving for p_rgh, Initial residual = 4.62448e-05, Final residual = 7.58334e-08, No Iterations 2
GAMG:  Solving for p_rgh, Initial residual = 7.58225e-08, Final residual = 7.58225e-08, No Iterations 0
time step continuity errors : sum local = 3.16313e-06, global = 1.35531e-06, cumulative = -2.89362e-06
GAMG:  Solving for p_rgh, Initial residual = 2.30605e-06, Final residual = 3.93019e-08, No Iterations 1
GAMG:  Solving for p_rgh, Initial residual = 3.92998e-08, Final residual = 2.98581e-09, No Iterations 2
time step continuity errors : sum local = 1.24567e-07, global = -2.23717e-08, cumulative = -2.916e-06
ExecutionTime = 4.56 s  ClockTime = 6 s

Courant Number mean: 0.0156617 max: 0.205233
Interface Courant Number mean: 0.00103514 max: 0.190404
deltaT = 0.0222029
Time = 0.477797

PIMPLE: iteration 1
smoothSolver:  Solving for alpha.water, Initial residual = 0.000365065, Final residual = 5.67372e-10, No Iterations 2
Phase-1 volume fraction = 0.520705  Min(alpha.water) = 0  Max(alpha.water) = 1.00004
MULES: Correcting alpha.water
Phase-1 volume fraction = 0.520705  Min(alpha.water) = 0  Max(alpha.water) = 1.00004
Relaxing time: 0.02 s
DILUPBiCGStab:  Solving for Ux, Initial residual = 0.00591454, Final residual = 8.32628e-10, No Iterations 2
DILUPBiCGStab:  Solving for Uz, Initial residual = 0.0272726, Final residual = 2.36572e-11, No Iterations 3
GAMG:  Solving for p_rgh, Initial residual = 0.00114642, Final residual = 3.85329e-08, No Iterations 5
GAMG:  Solving for p_rgh, Initial residual = 3.85232e-08, Final residual = 3.85232e-08, No Iterations 0
time step continuity errors : sum local = 1.60536e-06, global = -1.34775e-06, cumulative = -4.26374e-06
GAMG:  Solving for p_rgh, Initial residual = 4.66894e-05, Final residual = 7.4804e-08, No Iterations 2
GAMG:  Solving for p_rgh, Initial residual = 7.47892e-08, Final residual = 7.47892e-08, No Iterations 0
time step continuity errors : sum local = 3.11725e-06, global = 1.65909e-06, cumulative = -2.60465e-06
GAMG:  Solving for p_rgh, Initial residual = 2.39705e-06, Final residual = 3.86763e-08, No Iterations 1
GAMG:  Solving for p_rgh, Initial residual = 3.86738e-08, Final residual = 3.00275e-09, No Iterations 2
time step continuity errors : sum local = 1.25164e-07, global = -1.02439e-08, cumulative = -2.6149e-06
ExecutionTime = 4.7 s  ClockTime = 6 s

Courant Number mean: 0.0158326 max: 0.204224
Interface Courant Number mean: 0.00106112 max: 0.186766
deltaT = 0.0222029
Time = 0.5

PIMPLE: iteration 1
smoothSolver:  Solving for alpha.water, Initial residual = 0.000369679, Final residual = 6.80621e-10, No Iterations 2
Phase-1 volume fraction = 0.520953  Min(alpha.water) = 0  Max(alpha.water) = 1.00005
MULES: Correcting alpha.water
Phase-1 volume fraction = 0.520953  Min(alpha.water) = 0  Max(alpha.water) = 1.00005
Relaxing time: 0.01 s
DILUPBiCGStab:  Solving for Ux, Initial residual = 0.00589629, Final residual = 8.32342e-10, No Iterations 2
DILUPBiCGStab:  Solving for Uz, Initial residual = 0.0275122, Final residual = 2.21591e-11, No Iterations 3
GAMG:  Solving for p_rgh, Initial residual = 0.0012802, Final residual = 4.58248e-08, No Iterations 5
GAMG:  Solving for p_rgh, Initial residual = 4.58166e-08, Final residual = 4.58166e-08, No Iterations 0
time step continuity errors : sum local = 1.90965e-06, global = -1.67432e-06, cumulative = -4.28921e-06
GAMG:  Solving for p_rgh, Initial residual = 4.84876e-05, Final residual = 8.09228e-08, No Iterations 2
GAMG:  Solving for p_rgh, Initial residual = 8.0906e-08, Final residual = 8.0906e-08, No Iterations 0
time step continuity errors : sum local = 3.37286e-06, global = 1.65744e-06, cumulative = -2.63177e-06
GAMG:  Solving for p_rgh, Initial residual = 2.43186e-06, Final residual = 4.09963e-08, No Iterations 1
GAMG:  Solving for p_rgh, Initial residual = 4.09939e-08, Final residual = 3.00572e-09, No Iterations 2
time step continuity errors : sum local = 1.25312e-07, global = -4.27077e-09, cumulative = -2.63604e-06
ExecutionTime = 4.83 s  ClockTime = 6 s

Courant Number mean: 0.0160079 max: 0.204598
Interface Courant Number mean: 0.00107845 max: 0.196026
deltaT = 0.0217391
Time = 0.521739

PIMPLE: iteration 1
smoothSolver:  Solving for alpha.water, Initial residual = 0.000366293, Final residual = 7.32326e-10, No Iterations 2
Phase-1 volume fraction = 0.521193  Min(alpha.water) = 0  Max(alpha.water) = 1.00005
MULES: Correcting alpha.water
Phase-1 volume fraction = 0.521193  Min(alpha.water) = 0  Max(alpha.water) = 1.00005
Relaxing time: 0.01 s
DILUPBiCGStab:  Solving for Ux, Initial residual = 0.00579798, Final residual = 7.49673e-10, No Iterations 2
DILUPBiCGStab:  Solving for Uz, Initial residual = 0.0268044, Final residual = 9.26284e-10, No Iterations 2
GAMG:  Solving for p_rgh, Initial residual = 0.00146651, Final residual = 4.61381e-08, No Iterations 5
GAMG:  Solving for p_rgh, Initial residual = 4.61354e-08, Final residual = 4.61354e-08, No Iterations 0
time step continuity errors : sum local = 1.84366e-06, global = -1.62618e-06, cumulative = -4.26223e-06
GAMG:  Solving for p_rgh, Initial residual = 4.71099e-05, Final residual = 8.0833e-08, No Iterations 2
GAMG:  Solving for p_rgh, Initial residual = 8.08181e-08, Final residual = 8.08181e-08, No Iterations 0
time step continuity errors : sum local = 3.23021e-06, global = 1.81231e-06, cumulative = -2.44992e-06
GAMG:  Solving for p_rgh, Initial residual = 2.25573e-06, Final residual = 4.04757e-08, No Iterations 1
GAMG:  Solving for p_rgh, Initial residual = 4.04735e-08, Final residual = 2.99135e-09, No Iterations 2
time step continuity errors : sum local = 1.19568e-07, global = 2.67272e-09, cumulative = -2.44725e-06
ExecutionTime = 5.18 s  ClockTime = 7 s

Courant Number mean: 0.0158522 max: 0.200906
Interface Courant Number mean: 0.00105811 max: 0.189804
deltaT = 0.0217391
Time = 0.543478

PIMPLE: iteration 1
smoothSolver:  Solving for alpha.water, Initial residual = 0.000370795, Final residual = 8.37594e-10, No Iterations 2
Phase-1 volume fraction = 0.521429  Min(alpha.water) = 0  Max(alpha.water) = 1.00005
MULES: Correcting alpha.water
Phase-1 volume fraction = 0.521429  Min(alpha.water) = 0  Max(alpha.water) = 1.00005
Relaxing time: 0.01 s
DILUPBiCGStab:  Solving for Ux, Initial residual = 0.00575245, Final residual = 7.46534e-10, No Iterations 2
DILUPBiCGStab:  Solving for Uz, Initial residual = 0.0270869, Final residual = 9.07466e-10, No Iterations 2
GAMG:  Solving for p_rgh, Initial residual = 0.00147646, Final residual = 4.57184e-08, No Iterations 5
GAMG:  Solving for p_rgh, Initial residual = 4.57121e-08, Final residual = 4.57121e-08, No Iterations 0
time step continuity errors : sum local = 1.82438e-06, global = -1.59041e-06, cumulative = -4.03766e-06
GAMG:  Solving for p_rgh, Initial residual = 4.90785e-05, Final residual = 8.18299e-08, No Iterations 2
GAMG:  Solving for p_rgh, Initial residual = 8.18159e-08, Final residual = 8.18159e-08, No Iterations 0
time step continuity errors : sum local = 3.26581e-06, global = 1.88487e-06, cumulative = -2.15279e-06
GAMG:  Solving for p_rgh, Initial residual = 2.46394e-06, Final residual = 4.08723e-08, No Iterations 1
GAMG:  Solving for p_rgh, Initial residual = 4.08703e-08, Final residual = 2.95876e-09, No Iterations 2
time step continuity errors : sum local = 1.1811e-07, global = 6.00236e-09, cumulative = -2.14679e-06
ExecutionTime = 5.36 s  ClockTime = 7 s

Courant Number mean: 0.0161326 max: 0.200336
Interface Courant Number mean: 0.00109108 max: 0.187089
deltaT = 0.0217391
Time = 0.565217

PIMPLE: iteration 1
smoothSolver:  Solving for alpha.water, Initial residual = 0.000374952, Final residual = 9.0903e-10, No Iterations 2
Phase-1 volume fraction = 0.521662  Min(alpha.water) = 0  Max(alpha.water) = 1.00005
MULES: Correcting alpha.water
Phase-1 volume fraction = 0.521662  Min(alpha.water) = 0  Max(alpha.water) = 1.00005
Relaxing time: 0.02 s
DILUPBiCGStab:  Solving for Ux, Initial residual = 0.00575494, Final residual = 7.41932e-10, No Iterations 2
DILUPBiCGStab:  Solving for Uz, Initial residual = 0.0274201, Final residual = 9.0613e-10, No Iterations 2
GAMG:  Solving for p_rgh, Initial residual = 0.00140075, Final residual = 3.8985e-08, No Iterations 5
GAMG:  Solving for p_rgh, Initial residual = 3.89797e-08, Final residual = 3.89797e-08, No Iterations 0
time step continuity errors : sum local = 1.55304e-06, global = -1.28656e-06, cumulative = -3.43335e-06
GAMG:  Solving for p_rgh, Initial residual = 4.69266e-05, Final residual = 7.57859e-08, No Iterations 2
GAMG:  Solving for p_rgh, Initial residual = 7.57717e-08, Final residual = 7.57717e-08, No Iterations 0
time step continuity errors : sum local = 3.01947e-06, global = 1.48802e-06, cumulative = -1.94533e-06
GAMG:  Solving for p_rgh, Initial residual = 2.44325e-06, Final residual = 3.86536e-08, No Iterations 1
GAMG:  Solving for p_rgh, Initial residual = 3.86514e-08, Final residual = 2.84195e-09, No Iterations 2
time step continuity errors : sum local = 1.13257e-07, global = -4.90944e-09, cumulative = -1.95024e-06
ExecutionTime = 5.57 s  ClockTime = 7 s

Courant Number mean: 0.0163028 max: 0.198856
Interface Courant Number mean: 0.00106045 max: 0.183897
deltaT = 0.0217391
Time = 0.586957

PIMPLE: iteration 1
smoothSolver:  Solving for alpha.water, Initial residual = 0.000379506, Final residual = 9.75801e-10, No Iterations 2
Phase-1 volume fraction = 0.521891  Min(alpha.water) = 0  Max(alpha.water) = 1.00006
MULES: Correcting alpha.water
Phase-1 volume fraction = 0.521891  Min(alpha.water) = 0  Max(alpha.water) = 1.00006
Relaxing time: 0.02 s
DILUPBiCGStab:  Solving for Ux, Initial residual = 0.00576654, Final residual = 7.44026e-10, No Iterations 2
DILUPBiCGStab:  Solving for Uz, Initial residual = 0.0275546, Final residual = 9.14614e-10, No Iterations 2
GAMG:  Solving for p_rgh, Initial residual = 0.00128997, Final residual = 3.30429e-08, No Iterations 5
GAMG:  Solving for p_rgh, Initial residual = 3.30421e-08, Final residual = 3.30421e-08, No Iterations 0
time step continuity errors : sum local = 1.31447e-06, global = -9.81633e-07, cumulative = -2.93188e-06
GAMG:  Solving for p_rgh, Initial residual = 4.49458e-05, Final residual = 7.28e-08, No Iterations 2
GAMG:  Solving for p_rgh, Initial residual = 7.2785e-08, Final residual = 7.2785e-08, No Iterations 0
time step continuity errors : sum local = 2.8961e-06, global = 1.37203e-06, cumulative = -1.55984e-06
GAMG:  Solving for p_rgh, Initial residual = 2.41521e-06, Final residual = 3.62524e-08, No Iterations 1
GAMG:  Solving for p_rgh, Initial residual = 3.62499e-08, Final residual = 2.92799e-09, No Iterations 2
time step continuity errors : sum local = 1.16512e-07, global = -1.40447e-08, cumulative = -1.57389e-06
ExecutionTime = 5.72 s  ClockTime = 7 s

Courant Number mean: 0.0164739 max: 0.19697
Interface Courant Number mean: 0.00109732 max: 0.18985
deltaT = 0.0217391
Time = 0.608696

PIMPLE: iteration 1
smoothSolver:  Solving for alpha.water, Initial residual = 0.000383874, Final residual = 1.06956e-09, No Iterations 2
Phase-1 volume fraction = 0.522115  Min(alpha.water) = 0  Max(alpha.water) = 1.00006
MULES: Correcting alpha.water
Phase-1 volume fraction = 0.522115  Min(alpha.water) = 0  Max(alpha.water) = 1.00006
Relaxing time: 0.01 s
DILUPBiCGStab:  Solving for Ux, Initial residual = 0.00578023, Final residual = 7.5023e-10, No Iterations 2
DILUPBiCGStab:  Solving for Uz, Initial residual = 0.0278071, Final residual = 9.39859e-10, No Iterations 2
GAMG:  Solving for p_rgh, Initial residual = 0.00122347, Final residual = 3.35809e-08, No Iterations 5
GAMG:  Solving for p_rgh, Initial residual = 3.35801e-08, Final residual = 3.35801e-08, No Iterations 0
time step continuity errors : sum local = 1.33476e-06, global = -9.95111e-07, cumulative = -2.569e-06
GAMG:  Solving for p_rgh, Initial residual = 5.07728e-05, Final residual = 7.76728e-08, No Iterations 2
GAMG:  Solving for p_rgh, Initial residual = 7.76555e-08, Final residual = 7.76555e-08, No Iterations 0
time step continuity errors : sum local = 3.08736e-06, global = 1.32551e-06, cumulative = -1.24349e-06
GAMG:  Solving for p_rgh, Initial residual = 2.86183e-06, Final residual = 4.11555e-08, No Iterations 1
GAMG:  Solving for p_rgh, Initial residual = 4.11524e-08, Final residual = 3.21121e-09, No Iterations 2
time step continuity errors : sum local = 1.27678e-07, global = -1.69803e-08, cumulative = -1.26047e-06
ExecutionTime = 5.82 s  ClockTime = 8 s

Courant Number mean: 0.0166323 max: 0.197692
Interface Courant Number mean: 0.00115894 max: 0.188135
deltaT = 0.0217391
Time = 0.630435

PIMPLE: iteration 1
smoothSolver:  Solving for alpha.water, Initial residual = 0.000387918, Final residual = 1.17698e-09, No Iterations 2
Phase-1 volume fraction = 0.522334  Min(alpha.water) = 0  Max(alpha.water) = 1.00007
MULES: Correcting alpha.water
Phase-1 volume fraction = 0.522334  Min(alpha.water) = 0  Max(alpha.water) = 1.00007
Relaxing time: 0.02 s
DILUPBiCGStab:  Solving for Ux, Initial residual = 0.00576171, Final residual = 7.56404e-10, No Iterations 2
DILUPBiCGStab:  Solving for Uz, Initial residual = 0.0281209, Final residual = 9.87058e-10, No Iterations 2
GAMG:  Solving for p_rgh, Initial residual = 0.00127463, Final residual = 4.24721e-08, No Iterations 5
GAMG:  Solving for p_rgh, Initial residual = 4.24689e-08, Final residual = 4.24689e-08, No Iterations 0
time step continuity errors : sum local = 1.68738e-06, global = -1.34506e-06, cumulative = -2.60553e-06
GAMG:  Solving for p_rgh, Initial residual = 5.39838e-05, Final residual = 8.23013e-08, No Iterations 2
GAMG:  Solving for p_rgh, Initial residual = 8.22807e-08, Final residual = 8.22807e-08, No Iterations 0
time step continuity errors : sum local = 3.26997e-06, global = 1.55779e-06, cumulative = -1.04774e-06
GAMG:  Solving for p_rgh, Initial residual = 2.88642e-06, Final residual = 4.27596e-08, No Iterations 1
GAMG:  Solving for p_rgh, Initial residual = 4.27562e-08, Final residual = 3.61216e-09, No Iterations 2
time step continuity errors : sum local = 1.43565e-07, global = -1.41225e-08, cumulative = -1.06186e-06
ExecutionTime = 5.91 s  ClockTime = 8 s

Courant Number mean: 0.0167909 max: 0.197314
Interface Courant Number mean: 0.00114817 max: 0.186354
deltaT = 0.0217391
Time = 0.652174

PIMPLE: iteration 1
smoothSolver:  Solving for alpha.water, Initial residual = 0.000392191, Final residual = 1.28993e-09, No Iterations 2
Phase-1 volume fraction = 0.522549  Min(alpha.water) = 0  Max(alpha.water) = 1.00007
MULES: Correcting alpha.water
Phase-1 volume fraction = 0.522549  Min(alpha.water) = 0  Max(alpha.water) = 1.00007
Relaxing time: 0.01 s
DILUPBiCGStab:  Solving for Ux, Initial residual = 0.00580141, Final residual = 7.68082e-10, No Iterations 2
DILUPBiCGStab:  Solving for Uz, Initial residual = 0.0282512, Final residual = 2.69979e-11, No Iterations 3
GAMG:  Solving for p_rgh, Initial residual = 0.00137786, Final residual = 4.79462e-08, No Iterations 5
GAMG:  Solving for p_rgh, Initial residual = 4.79434e-08, Final residual = 4.79434e-08, No Iterations 0
time step continuity errors : sum local = 1.90489e-06, global = -1.51171e-06, cumulative = -2.57357e-06
GAMG:  Solving for p_rgh, Initial residual = 5.637e-05, Final residual = 8.5782e-08, No Iterations 2
GAMG:  Solving for p_rgh, Initial residual = 8.5761e-08, Final residual = 8.5761e-08, No Iterations 0
time step continuity errors : sum local = 3.40825e-06, global = 1.86932e-06, cumulative = -7.04253e-07
GAMG:  Solving for p_rgh, Initial residual = 3.02391e-06, Final residual = 4.34963e-08, No Iterations 1
GAMG:  Solving for p_rgh, Initial residual = 4.34932e-08, Final residual = 3.41203e-09, No Iterations 2
time step continuity errors : sum local = 1.35608e-07, global = -1.20519e-08, cumulative = -7.16305e-07
ExecutionTime = 6.06 s  ClockTime = 8 s

Courant Number mean: 0.0169195 max: 0.19573
Interface Courant Number mean: 0.00112547 max: 0.18405
deltaT = 0.0217391
Time = 0.673913

PIMPLE: iteration 1
smoothSolver:  Solving for alpha.water, Initial residual = 0.000397145, Final residual = 1.4092e-09, No Iterations 2
Phase-1 volume fraction = 0.52276  Min(alpha.water) = 0  Max(alpha.water) = 1.00008
MULES: Correcting alpha.water
Phase-1 volume fraction = 0.52276  Min(alpha.water) = 0  Max(alpha.water) = 1.00008
Relaxing time: 0.02 s
DILUPBiCGStab:  Solving for Ux, Initial residual = 0.00585901, Final residual = 7.73984e-10, No Iterations 2
DILUPBiCGStab:  Solving for Uz, Initial residual = 0.0285431, Final residual = 2.70712e-11, No Iterations 3
GAMG:  Solving for p_rgh, Initial residual = 0.00151691, Final residual = 4.82032e-08, No Iterations 5
GAMG:  Solving for p_rgh, Initial residual = 4.82086e-08, Final residual = 4.82086e-08, No Iterations 0
time step continuity errors : sum local = 1.91565e-06, global = -1.4902e-06, cumulative = -2.2065e-06
GAMG:  Solving for p_rgh, Initial residual = 5.30907e-05, Final residual = 8.45819e-08, No Iterations 2
GAMG:  Solving for p_rgh, Initial residual = 8.45607e-08, Final residual = 8.45607e-08, No Iterations 0
time step continuity errors : sum local = 3.36097e-06, global = 1.81955e-06, cumulative = -3.86954e-07
GAMG:  Solving for p_rgh, Initial residual = 2.83468e-06, Final residual = 4.04266e-08, No Iterations 1
GAMG:  Solving for p_rgh, Initial residual = 4.04236e-08, Final residual = 3.2215e-09, No Iterations 2
time step continuity errors : sum local = 1.28052e-07, global = -2.00505e-08, cumulative = -4.07005e-07
ExecutionTime = 6.24 s  ClockTime = 8 s

Courant Number mean: 0.0170961 max: 0.19336
Interface Courant Number mean: 0.00111363 max: 0.181677
deltaT = 0.0217391
Time = 0.695652

PIMPLE: iteration 1
smoothSolver:  Solving for alpha.water, Initial residual = 0.000402544, Final residual = 1.50056e-09, No Iterations 2
Phase-1 volume fraction = 0.522967  Min(alpha.water) = 0  Max(alpha.water) = 1.00009
MULES: Correcting alpha.water
Phase-1 volume fraction = 0.522967  Min(alpha.water) = 0  Max(alpha.water) = 1.00009
Relaxing time: 0.01 s
DILUPBiCGStab:  Solving for Ux, Initial residual = 0.00585592, Final residual = 7.72704e-10, No Iterations 2
DILUPBiCGStab:  Solving for Uz, Initial residual = 0.028824, Final residual = 2.68683e-11, No Iterations 3
GAMG:  Solving for p_rgh, Initial residual = 0.00163322, Final residual = 4.7687e-08, No Iterations 5
GAMG:  Solving for p_rgh, Initial residual = 4.76985e-08, Final residual = 4.76985e-08, No Iterations 0
time step continuity errors : sum local = 1.89419e-06, global = -1.47893e-06, cumulative = -1.88594e-06
GAMG:  Solving for p_rgh, Initial residual = 4.4671e-05, Final residual = 7.51665e-08, No Iterations 2
GAMG:  Solving for p_rgh, Initial residual = 7.51484e-08, Final residual = 7.51484e-08, No Iterations 0
time step continuity errors : sum local = 2.98497e-06, global = 1.51283e-06, cumulative = -3.73113e-07
GAMG:  Solving for p_rgh, Initial residual = 2.40318e-06, Final residual = 3.72205e-08, No Iterations 1
GAMG:  Solving for p_rgh, Initial residual = 3.72181e-08, Final residual = 2.94694e-09, No Iterations 2
time step continuity errors : sum local = 1.17063e-07, global = -1.8845e-08, cumulative = -3.91958e-07
ExecutionTime = 6.41 s  ClockTime = 8 s

Courant Number mean: 0.0174022 max: 0.20287
Interface Courant Number mean: 0.00113644 max: 0.177791
deltaT = 0.0217391
Time = 0.717391

PIMPLE: iteration 1
smoothSolver:  Solving for alpha.water, Initial residual = 0.00040684, Final residual = 1.5521e-09, No Iterations 2
Phase-1 volume fraction = 0.52317  Min(alpha.water) = 0  Max(alpha.water) = 1.00009
MULES: Correcting alpha.water
Phase-1 volume fraction = 0.52317  Min(alpha.water) = 0  Max(alpha.water) = 1.00009
Relaxing time: 0.02 s
DILUPBiCGStab:  Solving for Ux, Initial residual = 0.0058684, Final residual = 7.74694e-10, No Iterations 2
DILUPBiCGStab:  Solving for Uz, Initial residual = 0.0290327, Final residual = 2.79981e-11, No Iterations 3
GAMG:  Solving for p_rgh, Initial residual = 0.00149356, Final residual = 4.28851e-08, No Iterations 5
GAMG:  Solving for p_rgh, Initial residual = 4.29025e-08, Final residual = 4.29025e-08, No Iterations 0
time step continuity errors : sum local = 1.6998e-06, global = -1.38027e-06, cumulative = -1.77223e-06
GAMG:  Solving for p_rgh, Initial residual = 4.80395e-05, Final residual = 8.12568e-08, No Iterations 2
GAMG:  Solving for p_rgh, Initial residual = 8.12305e-08, Final residual = 8.12305e-08, No Iterations 0
time step continuity errors : sum local = 3.21938e-06, global = 1.50639e-06, cumulative = -2.65831e-07
GAMG:  Solving for p_rgh, Initial residual = 2.95913e-06, Final residual = 4.10822e-08, No Iterations 1
GAMG:  Solving for p_rgh, Initial residual = 4.10782e-08, Final residual = 3.54146e-09, No Iterations 2
time step continuity errors : sum local = 1.40371e-07, global = -3.90905e-08, cumulative = -3.04921e-07
ExecutionTime = 6.56 s  ClockTime = 8 s

Courant Number mean: 0.0175846 max: 0.205959
Interface Courant Number mean: 0.00118924 max: 0.184861
deltaT = 0.0217391
Time = 0.73913

PIMPLE: iteration 1
smoothSolver:  Solving for alpha.water, Initial residual = 0.000410262, Final residual = 1.61236e-09, No Iterations 2
Phase-1 volume fraction = 0.523369  Min(alpha.water) = 0  Max(alpha.water) = 1.0001
MULES: Correcting alpha.water
Phase-1 volume fraction = 0.523369  Min(alpha.water) = 0  Max(alpha.water) = 1.0001
Relaxing time: 0.02 s
DILUPBiCGStab:  Solving for Ux, Initial residual = 0.00586554, Final residual = 7.83973e-10, No Iterations 2
DILUPBiCGStab:  Solving for Uz, Initial residual = 0.0291951, Final residual = 2.83342e-11, No Iterations 3
GAMG:  Solving for p_rgh, Initial residual = 0.00140304, Final residual = 4.3422e-08, No Iterations 5
GAMG:  Solving for p_rgh, Initial residual = 4.34377e-08, Final residual = 4.34377e-08, No Iterations 0
time step continuity errors : sum local = 1.72005e-06, global = -1.40399e-06, cumulative = -1.70891e-06
GAMG:  Solving for p_rgh, Initial residual = 5.63763e-05, Final residual = 7.6616e-08, No Iterations 2
GAMG:  Solving for p_rgh, Initial residual = 7.65888e-08, Final residual = 7.65888e-08, No Iterations 0
time step continuity errors : sum local = 3.03382e-06, global = 1.11989e-06, cumulative = -5.89022e-07
GAMG:  Solving for p_rgh, Initial residual = 3.38386e-06, Final residual = 4.46596e-08, No Iterations 1
GAMG:  Solving for p_rgh, Initial residual = 4.46557e-08, Final residual = 3.62057e-09, No Iterations 2
time step continuity errors : sum local = 1.4343e-07, global = -3.84421e-08, cumulative = -6.27464e-07
ExecutionTime = 6.66 s  ClockTime = 8 s

Courant Number mean: 0.0177638 max: 0.211843
Interface Courant Number mean: 0.00123135 max: 0.182521
deltaT = 0.0200669
Time = 0.759197

PIMPLE: iteration 1
[...]
Phase-1 volume fraction = 0.499242  Min(alpha.water) = 0  Max(alpha.water) = 1.00039
MULES: Correcting alpha.water
Phase-1 volume fraction = 0.499242  Min(alpha.water) = 0  Max(alpha.water) = 1.00039
Relaxing time: 0.01 s
DILUPBiCGStab:  Solving for Ux, Initial residual = 0.00782954, Final residual = 6.53335e-10, No Iterations 2
DILUPBiCGStab:  Solving for Uz, Initial residual = 0.0948117, Final residual = 7.68806e-10, No Iterations 3
GAMG:  Solving for p_rgh, Initial residual = 0.000193961, Final residual = 9.09691e-08, No Iterations 3
GAMG:  Solving for p_rgh, Initial residual = 9.09676e-08, Final residual = 9.09676e-08, No Iterations 0
time step continuity errors : sum local = 9.77525e-06, global = 1.66289e-06, cumulative = 5.7816e-05
GAMG:  Solving for p_rgh, Initial residual = 1.60972e-06, Final residual = 2.5825e-08, No Iterations 2
GAMG:  Solving for p_rgh, Initial residual = 2.58257e-08, Final residual = 2.58257e-08, No Iterations 0
time step continuity errors : sum local = 2.77511e-06, global = 1.02504e-06, cumulative = 5.8841e-05
GAMG:  Solving for p_rgh, Initial residual = 6.40258e-08, Final residual = 6.40258e-08, No Iterations 0
GAMG:  Solving for p_rgh, Initial residual = 6.40258e-08, Final residual = 6.69502e-09, No Iterations 2
time step continuity errors : sum local = 7.19416e-07, global = 3.86133e-07, cumulative = 5.92271e-05
ExecutionTime = 149.54 s  ClockTime = 172 s

Courant Number mean: 0.00954774 max: 0.181927
Interface Courant Number mean: 0.000717486 max: 0.154363
deltaT = 0.0423077
Time = 14.5

PIMPLE: iteration 1
smoothSolver:  Solving for alpha.water, Initial residual = 6.68063e-05, Final residual = 8.32667e-11, No Iterations 2
Phase-1 volume fraction = 0.499239  Min(alpha.water) = 0  Max(alpha.water) = 1.00039
MULES: Correcting alpha.water
Phase-1 volume fraction = 0.499239  Min(alpha.water) = 0  Max(alpha.water) = 1.00039
Relaxing time: 0.01 s
DILUPBiCGStab:  Solving for Ux, Initial residual = 0.00779111, Final residual = 5.79253e-10, No Iterations 2
DILUPBiCGStab:  Solving for Uz, Initial residual = 0.0946466, Final residual = 7.10515e-10, No Iterations 3
GAMG:  Solving for p_rgh, Initial residual = 0.000193114, Final residual = 9.19404e-08, No Iterations 3
GAMG:  Solving for p_rgh, Initial residual = 9.1939e-08, Final residual = 9.1939e-08, No Iterations 0
time step continuity errors : sum local = 9.88113e-06, global = 2.12993e-06, cumulative = 6.13571e-05
GAMG:  Solving for p_rgh, Initial residual = 1.62606e-06, Final residual = 2.73278e-08, No Iterations 2
GAMG:  Solving for p_rgh, Initial residual = 2.73286e-08, Final residual = 2.73286e-08, No Iterations 0
time step continuity errors : sum local = 2.93705e-06, global = 1.26591e-06, cumulative = 6.2623e-05
GAMG:  Solving for p_rgh, Initial residual = 6.60139e-08, Final residual = 6.60139e-08, No Iterations 0
GAMG:  Solving for p_rgh, Initial residual = 6.60139e-08, Final residual = 7.26148e-09, No Iterations 2
time step continuity errors : sum local = 7.80405e-07, global = 4.67833e-07, cumulative = 6.30908e-05
ExecutionTime = 149.71 s  ClockTime = 172 s

Courant Number mean: 0.00942143 max: 0.180143
Interface Courant Number mean: 0.000706622 max: 0.152126
deltaT = 0.0454545
Time = 14.5455

PIMPLE: iteration 1
smoothSolver:  Solving for alpha.water, Initial residual = 7.12432e-05, Final residual = 1.1163e-10, No Iterations 2
Phase-1 volume fraction = 0.499237  Min(alpha.water) = 0  Max(alpha.water) = 1.00039
MULES: Correcting alpha.water
Phase-1 volume fraction = 0.499237  Min(alpha.water) = 0  Max(alpha.water) = 1.00039
Relaxing time: 0.01 s
DILUPBiCGStab:  Solving for Ux, Initial residual = 0.0083832, Final residual = 6.78098e-10, No Iterations 2
DILUPBiCGStab:  Solving for Uz, Initial residual = 0.106198, Final residual = 9.43053e-11, No Iterations 3
GAMG:  Solving for p_rgh, Initial residual = 0.000206825, Final residual = 9.816e-08, No Iterations 3
GAMG:  Solving for p_rgh, Initial residual = 9.81578e-08, Final residual = 9.81578e-08, No Iterations 0
time step continuity errors : sum local = 1.21627e-05, global = 1.97492e-06, cumulative = 6.50657e-05
GAMG:  Solving for p_rgh, Initial residual = 1.83645e-06, Final residual = 2.76971e-08, No Iterations 2
GAMG:  Solving for p_rgh, Initial residual = 2.7698e-08, Final residual = 2.7698e-08, No Iterations 0
time step continuity errors : sum local = 3.43194e-06, global = 1.18452e-06, cumulative = 6.62503e-05
GAMG:  Solving for p_rgh, Initial residual = 7.48118e-08, Final residual = 7.48118e-08, No Iterations 0
GAMG:  Solving for p_rgh, Initial residual = 7.48118e-08, Final residual = 7.12812e-09, No Iterations 2
time step continuity errors : sum local = 8.83217e-07, global = 4.48125e-07, cumulative = 6.66984e-05
ExecutionTime = 150.02 s  ClockTime = 173 s

Courant Number mean: 0.00997913 max: 0.191246
Interface Courant Number mean: 0.000740748 max: 0.161092
deltaT = 0.0454545
Time = 14.5909

PIMPLE: iteration 1
smoothSolver:  Solving for alpha.water, Initial residual = 7.05082e-05, Final residual = 1.17357e-10, No Iterations 2
Phase-1 volume fraction = 0.499236  Min(alpha.water) = 0  Max(alpha.water) = 1.00038
MULES: Correcting alpha.water
Phase-1 volume fraction = 0.499236  Min(alpha.water) = 0  Max(alpha.water) = 1.00038
Relaxing time: 0.01 s
DILUPBiCGStab:  Solving for Ux, Initial residual = 0.00835396, Final residual = 5.94273e-10, No Iterations 2
DILUPBiCGStab:  Solving for Uz, Initial residual = 0.105945, Final residual = 9.97417e-10, No Iterations 3
GAMG:  Solving for p_rgh, Initial residual = 0.000203757, Final residual = 9.81821e-08, No Iterations 3
GAMG:  Solving for p_rgh, Initial residual = 9.81805e-08, Final residual = 9.81805e-08, No Iterations 0
time step continuity errors : sum local = 1.21668e-05, global = 2.43111e-06, cumulative = 6.91295e-05
GAMG:  Solving for p_rgh, Initial residual = 1.82907e-06, Final residual = 2.89015e-08, No Iterations 2
GAMG:  Solving for p_rgh, Initial residual = 2.89024e-08, Final residual = 2.89024e-08, No Iterations 0
time step continuity errors : sum local = 3.58156e-06, global = 1.41458e-06, cumulative = 7.05441e-05
GAMG:  Solving for p_rgh, Initial residual = 7.74634e-08, Final residual = 7.74634e-08, No Iterations 0
GAMG:  Solving for p_rgh, Initial residual = 7.74634e-08, Final residual = 7.52861e-09, No Iterations 2
time step continuity errors : sum local = 9.32938e-07, global = 5.31961e-07, cumulative = 7.1076e-05
ExecutionTime = 150.16 s  ClockTime = 173 s

Courant Number mean: 0.00983651 max: 0.188754
Interface Courant Number mean: 0.000737007 max: 0.158831
deltaT = 0.0511364
Time = 14.642

PIMPLE: iteration 1
smoothSolver:  Solving for alpha.water, Initial residual = 7.86219e-05, Final residual = 1.82177e-10, No Iterations 2
Phase-1 volume fraction = 0.499234  Min(alpha.water) = 0  Max(alpha.water) = 1.00038
MULES: Correcting alpha.water
Phase-1 volume fraction = 0.499234  Min(alpha.water) = 0  Max(alpha.water) = 1.00038
Relaxing time: 0.01 s
DILUPBiCGStab:  Solving for Ux, Initial residual = 0.00944956, Final residual = 8.35342e-10, No Iterations 2
DILUPBiCGStab:  Solving for Uz, Initial residual = 0.128027, Final residual = 1.98756e-10, No Iterations 3
GAMG:  Solving for p_rgh, Initial residual = 0.000228421, Final residual = 4.32933e-08, No Iterations 4
GAMG:  Solving for p_rgh, Initial residual = 4.32938e-08, Final residual = 4.32938e-08, No Iterations 0
time step continuity errors : sum local = 6.77423e-06, global = 1.39322e-06, cumulative = 7.24693e-05
GAMG:  Solving for p_rgh, Initial residual = 2.16015e-06, Final residual = 1.73003e-08, No Iterations 2
GAMG:  Solving for p_rgh, Initial residual = 1.73004e-08, Final residual = 1.73004e-08, No Iterations 0
time step continuity errors : sum local = 2.70699e-06, global = 6.7452e-07, cumulative = 7.31438e-05
GAMG:  Solving for p_rgh, Initial residual = 8.51006e-08, Final residual = 8.51006e-08, No Iterations 0
GAMG:  Solving for p_rgh, Initial residual = 8.51006e-08, Final residual = 3.69261e-09, No Iterations 2
time step continuity errors : sum local = 5.77782e-07, global = 2.20188e-07, cumulative = 7.3364e-05
ExecutionTime = 150.31 s  ClockTime = 173 s

Courant Number mean: 0.0108994 max: 0.209064
Interface Courant Number mean: 0.000822101 max: 0.176141
deltaT = 0.0511364
Time = 14.6932

PIMPLE: iteration 1
smoothSolver:  Solving for alpha.water, Initial residual = 7.79874e-05, Final residual = 1.94012e-10, No Iterations 2
Phase-1 volume fraction = 0.499234  Min(alpha.water) = 0  Max(alpha.water) = 1.00038
MULES: Correcting alpha.water
Phase-1 volume fraction = 0.499234  Min(alpha.water) = 0  Max(alpha.water) = 1.00038
Relaxing time: 0.01 s
DILUPBiCGStab:  Solving for Ux, Initial residual = 0.00946907, Final residual = 7.3989e-10, No Iterations 2
DILUPBiCGStab:  Solving for Uz, Initial residual = 0.127729, Final residual = 1.82801e-10, No Iterations 3
GAMG:  Solving for p_rgh, Initial residual = 0.000224201, Final residual = 4.31428e-08, No Iterations 4
GAMG:  Solving for p_rgh, Initial residual = 4.31434e-08, Final residual = 4.31434e-08, No Iterations 0
time step continuity errors : sum local = 6.74967e-06, global = 1.81933e-06, cumulative = 7.51833e-05
GAMG:  Solving for p_rgh, Initial residual = 2.12981e-06, Final residual = 1.77959e-08, No Iterations 2
GAMG:  Solving for p_rgh, Initial residual = 1.7796e-08, Final residual = 1.7796e-08, No Iterations 0
time step continuity errors : sum local = 2.78411e-06, global = 8.65235e-07, cumulative = 7.60485e-05
GAMG:  Solving for p_rgh, Initial residual = 8.73641e-08, Final residual = 8.73641e-08, No Iterations 0
GAMG:  Solving for p_rgh, Initial residual = 8.73641e-08, Final residual = 3.86288e-09, No Iterations 2
time step continuity errors : sum local = 6.04332e-07, global = 3.06243e-07, cumulative = 7.63548e-05
ExecutionTime = 150.46 s  ClockTime = 173 s

Courant Number mean: 0.0107375 max: 0.205656
Interface Courant Number mean: 0.000792762 max: 0.173649
deltaT = 0.0511364
Time = 14.7443

PIMPLE: iteration 1
smoothSolver:  Solving for alpha.water, Initial residual = 7.72574e-05, Final residual = 2.06563e-10, No Iterations 2
Phase-1 volume fraction = 0.499233  Min(alpha.water) = 0  Max(alpha.water) = 1.00038
MULES: Correcting alpha.water
Phase-1 volume fraction = 0.499233  Min(alpha.water) = 0  Max(alpha.water) = 1.00038
Relaxing time: 0.01 s
DILUPBiCGStab:  Solving for Ux, Initial residual = 0.00950313, Final residual = 6.5658e-10, No Iterations 2
DILUPBiCGStab:  Solving for Uz, Initial residual = 0.127305, Final residual = 1.66801e-10, No Iterations 3
GAMG:  Solving for p_rgh, Initial residual = 0.000219741, Final residual = 4.45409e-08, No Iterations 4
GAMG:  Solving for p_rgh, Initial residual = 4.45416e-08, Final residual = 4.45416e-08, No Iterations 0
time step continuity errors : sum local = 6.96608e-06, global = 2.48832e-06, cumulative = 7.88431e-05
GAMG:  Solving for p_rgh, Initial residual = 2.1472e-06, Final residual = 1.95471e-08, No Iterations 2
GAMG:  Solving for p_rgh, Initial residual = 1.95472e-08, Final residual = 1.95472e-08, No Iterations 0
time step continuity errors : sum local = 3.05706e-06, global = 1.18718e-06, cumulative = 8.00303e-05
GAMG:  Solving for p_rgh, Initial residual = 9.27978e-08, Final residual = 9.27978e-08, No Iterations 0
GAMG:  Solving for p_rgh, Initial residual = 9.27978e-08, Final residual = 4.56807e-09, No Iterations 2
time step continuity errors : sum local = 7.14417e-07, global = 4.45627e-07, cumulative = 8.04759e-05
ExecutionTime = 150.76 s  ClockTime = 174 s

Courant Number mean: 0.0105713 max: 0.202197
Interface Courant Number mean: 0.000807042 max: 0.171208
deltaT = 0.0511364
Time = 14.7955

PIMPLE: iteration 1
smoothSolver:  Solving for alpha.water, Initial residual = 7.62581e-05, Final residual = 2.19048e-10, No Iterations 2
Phase-1 volume fraction = 0.499234  Min(alpha.water) = 0  Max(alpha.water) = 1.00037
MULES: Correcting alpha.water
Phase-1 volume fraction = 0.499234  Min(alpha.water) = 0  Max(alpha.water) = 1.00037
Relaxing time: 0.03 s
DILUPBiCGStab:  Solving for Ux, Initial residual = 0.00953631, Final residual = 6.50249e-10, No Iterations 2
DILUPBiCGStab:  Solving for Uz, Initial residual = 0.126925, Final residual = 1.80559e-10, No Iterations 3
GAMG:  Solving for p_rgh, Initial residual = 0.00021531, Final residual = 4.58794e-08, No Iterations 4
GAMG:  Solving for p_rgh, Initial residual = 4.58802e-08, Final residual = 4.58802e-08, No Iterations 0
time step continuity errors : sum local = 7.17501e-06, global = 3.15703e-06, cumulative = 8.36329e-05
GAMG:  Solving for p_rgh, Initial residual = 2.04864e-06, Final residual = 2.02458e-08, No Iterations 2
GAMG:  Solving for p_rgh, Initial residual = 2.02459e-08, Final residual = 2.02459e-08, No Iterations 0
time step continuity errors : sum local = 3.16615e-06, global = 1.65502e-06, cumulative = 8.52879e-05
GAMG:  Solving for p_rgh, Initial residual = 7.97231e-08, Final residual = 7.97231e-08, No Iterations 0
GAMG:  Solving for p_rgh, Initial residual = 7.97231e-08, Final residual = 5.13392e-09, No Iterations 2
time step continuity errors : sum local = 8.02865e-07, global = 5.87284e-07, cumulative = 8.58752e-05
ExecutionTime = 150.98 s  ClockTime = 174 s

Courant Number mean: 0.0104084 max: 0.201506
Interface Courant Number mean: 0.000801806 max: 0.168812
deltaT = 0.0511364
Time = 14.8466

PIMPLE: iteration 1
smoothSolver:  Solving for alpha.water, Initial residual = 7.51866e-05, Final residual = 2.31631e-10, No Iterations 2
Phase-1 volume fraction = 0.499235  Min(alpha.water) = 0  Max(alpha.water) = 1.00037
MULES: Correcting alpha.water
Phase-1 volume fraction = 0.499235  Min(alpha.water) = 0  Max(alpha.water) = 1.00037
Relaxing time: 0.02 s
DILUPBiCGStab:  Solving for Ux, Initial residual = 0.00957725, Final residual = 6.01347e-10, No Iterations 2
DILUPBiCGStab:  Solving for Uz, Initial residual = 0.126642, Final residual = 1.70068e-10, No Iterations 3
GAMG:  Solving for p_rgh, Initial residual = 0.000211551, Final residual = 4.71366e-08, No Iterations 4
GAMG:  Solving for p_rgh, Initial residual = 4.71375e-08, Final residual = 4.71375e-08, No Iterations 0
time step continuity errors : sum local = 7.3707e-06, global = 3.61433e-06, cumulative = 8.94896e-05
GAMG:  Solving for p_rgh, Initial residual = 2.02533e-06, Final residual = 2.15254e-08, No Iterations 2
GAMG:  Solving for p_rgh, Initial residual = 2.15256e-08, Final residual = 2.15256e-08, No Iterations 0
time step continuity errors : sum local = 3.36585e-06, global = 1.88053e-06, cumulative = 9.13701e-05
GAMG:  Solving for p_rgh, Initial residual = 7.85147e-08, Final residual = 7.85147e-08, No Iterations 0
GAMG:  Solving for p_rgh, Initial residual = 7.85147e-08, Final residual = 5.55254e-09, No Iterations 2
time step continuity errors : sum local = 8.68222e-07, global = 6.54226e-07, cumulative = 9.20243e-05
ExecutionTime = 151.1 s  ClockTime = 174 s

Courant Number mean: 0.0102359 max: 0.199713
Interface Courant Number mean: 0.000768666 max: 0.166444
deltaT = 0.0511364
Time = 14.8977

PIMPLE: iteration 1
smoothSolver:  Solving for alpha.water, Initial residual = 7.42275e-05, Final residual = 2.44215e-10, No Iterations 2
Phase-1 volume fraction = 0.499236  Min(alpha.water) = 0  Max(alpha.water) = 1.00037
MULES: Correcting alpha.water
Phase-1 volume fraction = 0.499236  Min(alpha.water) = 0  Max(alpha.water) = 1.00037
Relaxing time: 0.01 s
DILUPBiCGStab:  Solving for Ux, Initial residual = 0.00964904, Final residual = 5.55357e-10, No Iterations 2
DILUPBiCGStab:  Solving for Uz, Initial residual = 0.126305, Final residual = 1.58864e-10, No Iterations 3
GAMG:  Solving for p_rgh, Initial residual = 0.000207664, Final residual = 4.7947e-08, No Iterations 4
GAMG:  Solving for p_rgh, Initial residual = 4.7948e-08, Final residual = 4.7948e-08, No Iterations 0
time step continuity errors : sum local = 7.49803e-06, global = 4.04751e-06, cumulative = 9.60718e-05
GAMG:  Solving for p_rgh, Initial residual = 1.94383e-06, Final residual = 2.22741e-08, No Iterations 2
GAMG:  Solving for p_rgh, Initial residual = 2.22742e-08, Final residual = 2.22742e-08, No Iterations 0
time step continuity errors : sum local = 3.48318e-06, global = 2.07543e-06, cumulative = 9.81473e-05
GAMG:  Solving for p_rgh, Initial residual = 7.30497e-08, Final residual = 7.30497e-08, No Iterations 0
GAMG:  Solving for p_rgh, Initial residual = 7.30497e-08, Final residual = 5.81033e-09, No Iterations 2
time step continuity errors : sum local = 9.08605e-07, global = 7.07015e-07, cumulative = 9.88543e-05
ExecutionTime = 151.23 s  ClockTime = 174 s

Courant Number mean: 0.0100583 max: 0.197231
Interface Courant Number mean: 0.000777933 max: 0.164091
deltaT = 0.0511364
Time = 14.9489

PIMPLE: iteration 1
smoothSolver:  Solving for alpha.water, Initial residual = 7.31903e-05, Final residual = 2.55784e-10, No Iterations 2
Phase-1 volume fraction = 0.499238  Min(alpha.water) = 0  Max(alpha.water) = 1.00037
MULES: Correcting alpha.water
Phase-1 volume fraction = 0.499238  Min(alpha.water) = 0  Max(alpha.water) = 1.00037
Relaxing time: 0.01 s
DILUPBiCGStab:  Solving for Ux, Initial residual = 0.00973361, Final residual = 5.12509e-10, No Iterations 2
DILUPBiCGStab:  Solving for Uz, Initial residual = 0.125883, Final residual = 1.48027e-10, No Iterations 3
GAMG:  Solving for p_rgh, Initial residual = 0.000205128, Final residual = 4.88899e-08, No Iterations 4
GAMG:  Solving for p_rgh, Initial residual = 4.88909e-08, Final residual = 4.88909e-08, No Iterations 0
time step continuity errors : sum local = 7.64649e-06, global = 4.39563e-06, cumulative = 0.00010325
GAMG:  Solving for p_rgh, Initial residual = 1.85046e-06, Final residual = 2.30107e-08, No Iterations 2
GAMG:  Solving for p_rgh, Initial residual = 2.30108e-08, Final residual = 2.30108e-08, No Iterations 0
time step continuity errors : sum local = 3.59885e-06, global = 2.22675e-06, cumulative = 0.000105477
GAMG:  Solving for p_rgh, Initial residual = 7.00572e-08, Final residual = 7.00572e-08, No Iterations 0
GAMG:  Solving for p_rgh, Initial residual = 7.00572e-08, Final residual = 6.04345e-09, No Iterations 2
time step continuity errors : sum local = 9.45186e-07, global = 7.43943e-07, cumulative = 0.000106221
ExecutionTime = 151.34 s  ClockTime = 174 s

Courant Number mean: 0.00987675 max: 0.194375
Interface Courant Number mean: 0.000771717 max: 0.161738
deltaT = 0.0511364
Time = 15

PIMPLE: iteration 1
smoothSolver:  Solving for alpha.water, Initial residual = 7.22437e-05, Final residual = 2.69791e-10, No Iterations 2
Phase-1 volume fraction = 0.49924  Min(alpha.water) = 0  Max(alpha.water) = 1.00037
MULES: Correcting alpha.water
Phase-1 volume fraction = 0.49924  Min(alpha.water) = 0  Max(alpha.water) = 1.00037
Relaxing time: 0.01 s
DILUPBiCGStab:  Solving for Ux, Initial residual = 0.00981007, Final residual = 4.73661e-10, No Iterations 2
DILUPBiCGStab:  Solving for Uz, Initial residual = 0.125408, Final residual = 1.37594e-10, No Iterations 3
GAMG:  Solving for p_rgh, Initial residual = 0.000203279, Final residual = 4.933e-08, No Iterations 4
GAMG:  Solving for p_rgh, Initial residual = 4.93311e-08, Final residual = 4.93311e-08, No Iterations 0
time step continuity errors : sum local = 7.7177e-06, global = 4.73012e-06, cumulative = 0.000110951
GAMG:  Solving for p_rgh, Initial residual = 1.82717e-06, Final residual = 2.34837e-08, No Iterations 2
GAMG:  Solving for p_rgh, Initial residual = 2.34837e-08, Final residual = 2.34837e-08, No Iterations 0
time step continuity errors : sum local = 3.67396e-06, global = 2.39699e-06, cumulative = 0.000113348
GAMG:  Solving for p_rgh, Initial residual = 6.91443e-08, Final residual = 6.91443e-08, No Iterations 0
GAMG:  Solving for p_rgh, Initial residual = 6.91443e-08, Final residual = 6.20641e-09, No Iterations 2
time step continuity errors : sum local = 9.70973e-07, global = 7.81759e-07, cumulative = 0.000114129
ExecutionTime = 151.52 s  ClockTime = 175 s

End

Finalising parallel run
