/*---------------------------------------------------------------------------*\
| =========                 |                                                 |
| \\      /  F ield         | OpenFOAM: The Open Source CFD Toolbox           |
|  \\    /   O peration     | Version:  v1706                                 |
|   \\  /    A nd           | Web:      www.OpenFOAM.com                      |
|    \\/     M anipulation  |                                                 |
\*---------------------------------------------------------------------------*/
Build  : v1706
Arch   : "LSB;label=32;scalar=64"
Exec   : waveFoam -parallel
Date   : Oct 09 2019
Time   : 15:44:18
Host   : "cybrex"
PID    : 7243
Case   : /home/cybrex/OpenFOAM/cybrex-v1706/run/waveModels/internal/Go
nProcs : 16
Slaves : 
15
(
"cybrex.7244"
"cybrex.7245"
"cybrex.7246"
"cybrex.7247"
"cybrex.7248"
"cybrex.7249"
"cybrex.7250"
"cybrex.7251"
"cybrex.7252"
"cybrex.7253"
"cybrex.7254"
"cybrex.7255"
"cybrex.7256"
"cybrex.7257"
"cybrex.7258"
)

Pstream initialized with:
    floatTransfer      : 0
    nProcsSimpleSum    : 0
    commsType          : nonBlocking
    polling iterations : 0
sigFpe : Enabling floating point exception trapping (FOAM_SIGFPE).
fileModificationChecking : Monitoring run-time modified files using timeStampMaster (fileModificationSkew 10)
allowSystemOperations : Allowing user-supplied system call operations

// * * * * * * * * * * * * * * * * * * * * * * * * * * * * * * * * * * * * * //
Create time

Create mesh for time = 0

// using new solver syntax:
pcorr
{
    solver          GAMG;
    tolerance       1e-07;
    relTol          0;
    smoother        DIC;
    nPreSweeps      0;
    nPostSweeps     2;
    nFinestSweeps   2;
    cacheAgglomeration true;
    nCellsInCoarsestLevel 10;
    agglomerator    faceAreaPair;
    mergeLevels     1;
}

// using new solver syntax:
pcorrFinal
{
    solver          GAMG;
    tolerance       1e-07;
    relTol          0;
    smoother        DIC;
    nPreSweeps      0;
    nPostSweeps     2;
    nFinestSweeps   2;
    cacheAgglomeration true;
    nCellsInCoarsestLevel 10;
    agglomerator    faceAreaPair;
    mergeLevels     1;
}

// using new solver syntax:
p_rgh
{
    solver          GAMG;
    tolerance       1e-07;
    relTol          0;
    smoother        DIC;
    nPreSweeps      0;
    nPostSweeps     2;
    nFinestSweeps   2;
    cacheAgglomeration true;
    nCellsInCoarsestLevel 10;
    agglomerator    faceAreaPair;
    mergeLevels     1;
}

// using new solver syntax:
p_rghFinal
{
    solver          GAMG;
    tolerance       1e-08;
    relTol          0;
    smoother        DIC;
    nPreSweeps      0;
    nPostSweeps     2;
    nFinestSweeps   2;
    cacheAgglomeration true;
    nCellsInCoarsestLevel 10;
    agglomerator    faceAreaPair;
    mergeLevels     1;
}

// using new solver syntax:
U
{
    solver          PBiCG;
    preconditioner  DILU;
    tolerance       1e-09;
    relTol          0;
}

// using new solver syntax:
UFinal
{
    solver          PBiCGStab;
    preconditioner  DILU;
    tolerance       1e-09;
    relTol          0;
}

// using new solver syntax:
gamma
{
    solver          PBiCGStab;
    preconditioner  DILU;
    tolerance       1e-07;
    relTol          0;
}


PIMPLE: Operating solver in PISO mode


Reading g

Reading waveProperties

Reading waveProperties
Reading field p_rgh

Reading field U

Reading/calculating face flux field phi

Reading transportProperties

Selecting incompressible transport model Newtonian
Selecting incompressible transport model Newtonian
Selecting turbulence model type laminar
Selecting laminar stress model Stokes
No MRF models present

No finite volume options present

GAMG:  Solving for pcorr, Initial residual = 1, Final residual = 8.73061e-08, No Iterations 33
GAMG:  Solving for pcorr, Initial residual = 4.5955e-09, Final residual = 4.5955e-09, No Iterations 0
time step continuity errors : sum local = 1.55114e-12, global = -1.97939e-14, cumulative = -1.97939e-14
Courant Number mean: 0.000154654 max: 0.0035631

Starting time loop

Courant Number mean: 0.000154654 max: 0.0035631
Interface Courant Number mean: 3.27891e-06 max: 0.00225196
deltaT = 0.00119904
Time = 0.00119904

PIMPLE: iteration 1
smoothSolver:  Solving for alpha.water, Initial residual = 3.40885e-06, Final residual = 8.59815e-10, No Iterations 1
Phase-1 volume fraction = 0.792455  Min(alpha.water) = 0  Max(alpha.water) = 1
MULES: Correcting alpha.water
Phase-1 volume fraction = 0.792455  Min(alpha.water) = 0  Max(alpha.water) = 1
Relaxing time: 0.01 s
DILUPBiCGStab:  Solving for Ux, Initial residual = 0.000102625, Final residual = 1.87033e-11, No Iterations 1
DILUPBiCGStab:  Solving for Uz, Initial residual = 0.0059108, Final residual = 1.65731e-10, No Iterations 1
GAMG:  Solving for p_rgh, Initial residual = 1, Final residual = 7.95941e-08, No Iterations 32
GAMG:  Solving for p_rgh, Initial residual = 7.83473e-09, Final residual = 7.83473e-09, No Iterations 0
time step continuity errors : sum local = 2.59007e-12, global = -2.27185e-14, cumulative = -4.25124e-14
GAMG:  Solving for p_rgh, Initial residual = 3.61966e-05, Final residual = 9.60395e-08, No Iterations 7
GAMG:  Solving for p_rgh, Initial residual = 9.60321e-08, Final residual = 9.60321e-08, No Iterations 0
time step continuity errors : sum local = 3.17492e-11, global = -1.9638e-12, cumulative = -2.00631e-12
GAMG:  Solving for p_rgh, Initial residual = 1.10083e-07, Final residual = 6.08317e-08, No Iterations 1
GAMG:  Solving for p_rgh, Initial residual = 6.08316e-08, Final residual = 9.22888e-09, No Iterations 4
time step continuity errors : sum local = 3.05116e-12, global = -5.20475e-14, cumulative = -2.05836e-12
ExecutionTime = 0.42 s  ClockTime = 1 s

Courant Number mean: 0.000188091 max: 0.0040153
Interface Courant Number mean: 3.8772e-06 max: 0.00258144
deltaT = 0.00143747
Time = 0.00263651

PIMPLE: iteration 1
smoothSolver:  Solving for alpha.water, Initial residual = 4.04563e-06, Final residual = 1.13577e-09, No Iterations 1
Phase-1 volume fraction = 0.792453  Min(alpha.water) = 0  Max(alpha.water) = 1
MULES: Correcting alpha.water
Phase-1 volume fraction = 0.792453  Min(alpha.water) = 0  Max(alpha.water) = 1
Relaxing time: 0 s
DILUPBiCGStab:  Solving for Ux, Initial residual = 0.072924, Final residual = 9.22635e-10, No Iterations 1
DILUPBiCGStab:  Solving for Uz, Initial residual = 0.566005, Final residual = 2.24599e-11, No Iterations 2
GAMG:  Solving for p_rgh, Initial residual = 0.0656113, Final residual = 7.68223e-08, No Iterations 26
GAMG:  Solving for p_rgh, Initial residual = 3.52503e-07, Final residual = 7.60396e-08, No Iterations 4
time step continuity errors : sum local = 7.49413e-12, global = 7.20403e-14, cumulative = -1.98632e-12
GAMG:  Solving for p_rgh, Initial residual = 0.0002398, Final residual = 8.12613e-08, No Iterations 11
GAMG:  Solving for p_rgh, Initial residual = 8.11802e-08, Final residual = 8.11802e-08, No Iterations 0
time step continuity errors : sum local = 8.00914e-12, global = 1.28895e-13, cumulative = -1.85742e-12
GAMG:  Solving for p_rgh, Initial residual = 2.17543e-07, Final residual = 5.38905e-08, No Iterations 1
GAMG:  Solving for p_rgh, Initial residual = 5.38905e-08, Final residual = 7.93343e-09, No Iterations 4
time step continuity errors : sum local = 7.82704e-13, global = 4.67577e-15, cumulative = -1.85274e-12
ExecutionTime = 0.65 s  ClockTime = 1 s

Courant Number mean: 0.000224838 max: 0.00476715
Interface Courant Number mean: 4.67166e-06 max: 0.00315038
deltaT = 0.00172696
Time = 0.00436346

PIMPLE: iteration 1
smoothSolver:  Solving for alpha.water, Initial residual = 4.86855e-06, Final residual = 1.70339e-09, No Iterations 1
Phase-1 volume fraction = 0.79245  Min(alpha.water) = 0  Max(alpha.water) = 1
MULES: Correcting alpha.water
Phase-1 volume fraction = 0.79245  Min(alpha.water) = 0  Max(alpha.water) = 1
Relaxing time: 0 s
DILUPBiCGStab:  Solving for Ux, Initial residual = 0.00319972, Final residual = 1.23506e-10, No Iterations 1
DILUPBiCGStab:  Solving for Uz, Initial residual = 0.0170966, Final residual = 8.97789e-10, No Iterations 1
GAMG:  Solving for p_rgh, Initial residual = 0.0377986, Final residual = 8.57163e-08, No Iterations 19
GAMG:  Solving for p_rgh, Initial residual = 8.28924e-08, Final residual = 8.28924e-08, No Iterations 0
time step continuity errors : sum local = 1.1977e-11, global = 1.09264e-13, cumulative = -1.74348e-12
GAMG:  Solving for p_rgh, Initial residual = 2.20297e-05, Final residual = 9.88759e-08, No Iterations 5
GAMG:  Solving for p_rgh, Initial residual = 9.88775e-08, Final residual = 9.88775e-08, No Iterations 0
time step continuity errors : sum local = 1.42865e-11, global = -2.11223e-12, cumulative = -3.85571e-12
GAMG:  Solving for p_rgh, Initial residual = 1.18108e-07, Final residual = 6.26077e-08, No Iterations 1
GAMG:  Solving for p_rgh, Initial residual = 6.26078e-08, Final residual = 9.8869e-09, No Iterations 4
time step continuity errors : sum local = 1.42852e-12, global = -1.03988e-13, cumulative = -3.9597e-12
ExecutionTime = 0.83 s  ClockTime = 1 s

Courant Number mean: 0.000269551 max: 0.00568557
Interface Courant Number mean: 5.62597e-06 max: 0.0038181
deltaT = 0.00207379
Time = 0.00643726

PIMPLE: iteration 1
smoothSolver:  Solving for alpha.water, Initial residual = 5.85266e-06, Final residual = 2.50763e-09, No Iterations 1
Phase-1 volume fraction = 0.792446  Min(alpha.water) = 0  Max(alpha.water) = 1
MULES: Correcting alpha.water
Phase-1 volume fraction = 0.792446  Min(alpha.water) = 0  Max(alpha.water) = 1
Relaxing time: 0.01 s
DILUPBiCGStab:  Solving for Ux, Initial residual = 0.00192451, Final residual = 9.83978e-11, No Iterations 1
DILUPBiCGStab:  Solving for Uz, Initial residual = 0.00954217, Final residual = 6.02488e-10, No Iterations 1
GAMG:  Solving for p_rgh, Initial residual = 0.0134226, Final residual = 9.16659e-08, No Iterations 17
GAMG:  Solving for p_rgh, Initial residual = 9.06e-08, Final residual = 9.06e-08, No Iterations 0
time step continuity errors : sum local = 1.89347e-11, global = 2.15471e-13, cumulative = -3.74423e-12
GAMG:  Solving for p_rgh, Initial residual = 8.18794e-06, Final residual = 8.95319e-08, No Iterations 3
GAMG:  Solving for p_rgh, Initial residual = 8.95324e-08, Final residual = 8.95324e-08, No Iterations 0
time step continuity errors : sum local = 1.87115e-11, global = -3.85003e-12, cumulative = -7.59426e-12
GAMG:  Solving for p_rgh, Initial residual = 9.69791e-08, Final residual = 9.69791e-08, No Iterations 0
GAMG:  Solving for p_rgh, Initial residual = 9.69791e-08, Final residual = 7.6354e-09, No Iterations 5
time step continuity errors : sum local = 1.59573e-12, global = -1.10595e-13, cumulative = -7.70485e-12
ExecutionTime = 1 s  ClockTime = 1 s

Courant Number mean: 0.000323183 max: 0.00681607
Interface Courant Number mean: 6.76333e-06 max: 0.00460902
deltaT = 0.00249274
Time = 0.00893

PIMPLE: iteration 1
smoothSolver:  Solving for alpha.water, Initial residual = 7.03881e-06, Final residual = 3.66992e-09, No Iterations 1
Phase-1 volume fraction = 0.792442  Min(alpha.water) = 0  Max(alpha.water) = 1
MULES: Correcting alpha.water
Phase-1 volume fraction = 0.792442  Min(alpha.water) = 0  Max(alpha.water) = 1
Relaxing time: 0 s
DILUPBiCGStab:  Solving for Ux, Initial residual = 0.00138565, Final residual = 1.62307e-10, No Iterations 1
DILUPBiCGStab:  Solving for Uz, Initial residual = 0.00649121, Final residual = 8.38682e-10, No Iterations 1
GAMG:  Solving for p_rgh, Initial residual = 0.00748526, Final residual = 8.21496e-08, No Iterations 16
GAMG:  Solving for p_rgh, Initial residual = 8.16404e-08, Final residual = 8.16404e-08, No Iterations 0
time step continuity errors : sum local = 2.46911e-11, global = 3.08834e-13, cumulative = -7.39602e-12
GAMG:  Solving for p_rgh, Initial residual = 4.63269e-06, Final residual = 8.762e-08, No Iterations 2
GAMG:  Solving for p_rgh, Initial residual = 8.76201e-08, Final residual = 8.76201e-08, No Iterations 0
time step continuity errors : sum local = 2.64996e-11, global = -6.16344e-12, cumulative = -1.35595e-11
GAMG:  Solving for p_rgh, Initial residual = 9.16604e-08, Final residual = 9.16604e-08, No Iterations 0
GAMG:  Solving for p_rgh, Initial residual = 9.16604e-08, Final residual = 7.35209e-09, No Iterations 5
time step continuity errors : sum local = 2.22355e-12, global = -1.82736e-13, cumulative = -1.37422e-11
ExecutionTime = 1.17 s  ClockTime = 2 s

Courant Number mean: 0.000388014 max: 0.00818986
Interface Courant Number mean: 8.4974e-06 max: 0.00555865
deltaT = 0.00299433
Time = 0.0119243

PIMPLE: iteration 1
smoothSolver:  Solving for alpha.water, Initial residual = 8.45622e-06, Final residual = 5.34193e-09, No Iterations 1
Phase-1 volume fraction = 0.792437  Min(alpha.water) = 0  Max(alpha.water) = 1
MULES: Correcting alpha.water
Phase-1 volume fraction = 0.792437  Min(alpha.water) = 0  Max(alpha.water) = 1
Relaxing time: 0 s
DILUPBiCGStab:  Solving for Ux, Initial residual = 0.00110901, Final residual = 1.98868e-10, No Iterations 1
DILUPBiCGStab:  Solving for Uz, Initial residual = 0.00483796, Final residual = 9.16405e-10, No Iterations 1
GAMG:  Solving for p_rgh, Initial residual = 0.00452916, Final residual = 8.12151e-08, No Iterations 15
GAMG:  Solving for p_rgh, Initial residual = 8.09568e-08, Final residual = 8.09568e-08, No Iterations 0
time step continuity errors : sum local = 3.53324e-11, global = 5.08977e-13, cumulative = -1.32332e-11
GAMG:  Solving for p_rgh, Initial residual = 3.13026e-06, Final residual = 7.07272e-08, No Iterations 2
GAMG:  Solving for p_rgh, Initial residual = 7.07272e-08, Final residual = 7.07272e-08, No Iterations 0
time step continuity errors : sum local = 3.08679e-11, global = -5.01383e-12, cumulative = -1.82471e-11
GAMG:  Solving for p_rgh, Initial residual = 7.38127e-08, Final residual = 7.38127e-08, No Iterations 0
GAMG:  Solving for p_rgh, Initial residual = 7.38127e-08, Final residual = 9.75853e-09, No Iterations 4
time step continuity errors : sum local = 4.25897e-12, global = -5.04441e-13, cumulative = -1.87515e-11
ExecutionTime = 1.33 s  ClockTime = 2 s

Courant Number mean: 0.000465645 max: 0.0098414
Interface Courant Number mean: 1.02032e-05 max: 0.00669079
deltaT = 0.00358879
Time = 0.0155131

PIMPLE: iteration 1
smoothSolver:  Solving for alpha.water, Initial residual = 1.01328e-05, Final residual = 7.7205e-09, No Iterations 1
Phase-1 volume fraction = 0.792431  Min(alpha.water) = 0  Max(alpha.water) = 1
MULES: Correcting alpha.water
Phase-1 volume fraction = 0.792431  Min(alpha.water) = 0  Max(alpha.water) = 1
Relaxing time: 0 s
DILUPBiCGStab:  Solving for Ux, Initial residual = 0.0010036, Final residual = 2.81064e-10, No Iterations 1
DILUPBiCGStab:  Solving for Uz, Initial residual = 0.00389085, Final residual = 3.33603e-12, No Iterations 2
GAMG:  Solving for p_rgh, Initial residual = 0.00289087, Final residual = 8.293e-08, No Iterations 14
GAMG:  Solving for p_rgh, Initial residual = 8.2788e-08, Final residual = 8.2788e-08, No Iterations 0
time step continuity errors : sum local = 5.18774e-11, global = 8.66038e-13, cumulative = -1.78855e-11
GAMG:  Solving for p_rgh, Initial residual = 2.38415e-06, Final residual = 5.64465e-08, No Iterations 2
GAMG:  Solving for p_rgh, Initial residual = 5.64465e-08, Final residual = 5.64465e-08, No Iterations 0
time step continuity errors : sum local = 3.53711e-11, global = -4.22833e-12, cumulative = -2.21138e-11
GAMG:  Solving for p_rgh, Initial residual = 5.88555e-08, Final residual = 5.88555e-08, No Iterations 0
GAMG:  Solving for p_rgh, Initial residual = 5.88555e-08, Final residual = 7.33591e-09, No Iterations 4
time step continuity errors : sum local = 4.5969e-12, global = -6.42108e-13, cumulative = -2.27559e-11
ExecutionTime = 1.48 s  ClockTime = 2 s

Courant Number mean: 0.000557642 max: 0.0118072
Interface Courant Number mean: 1.22172e-05 max: 0.0080275
deltaT = 0.00428749
Time = 0.0198006

PIMPLE: iteration 1
smoothSolver:  Solving for alpha.water, Initial residual = 1.20991e-05, Final residual = 7.67956e-17, No Iterations 2
Phase-1 volume fraction = 0.792423  Min(alpha.water) = 0  Max(alpha.water) = 1
MULES: Correcting alpha.water
Phase-1 volume fraction = 0.792423  Min(alpha.water) = 0  Max(alpha.water) = 1
Relaxing time: 0 s
DILUPBiCGStab:  Solving for Ux, Initial residual = 0.00101091, Final residual = 4.49317e-10, No Iterations 1
DILUPBiCGStab:  Solving for Uz, Initial residual = 0.00330596, Final residual = 4.79164e-12, No Iterations 2
GAMG:  Solving for p_rgh, Initial residual = 0.00208627, Final residual = 9.08852e-08, No Iterations 13
GAMG:  Solving for p_rgh, Initial residual = 9.08061e-08, Final residual = 9.08061e-08, No Iterations 0
time step continuity errors : sum local = 8.11497e-11, global = 1.59505e-12, cumulative = -2.11608e-11
GAMG:  Solving for p_rgh, Initial residual = 2.01245e-06, Final residual = 5.00027e-08, No Iterations 2
GAMG:  Solving for p_rgh, Initial residual = 5.00027e-08, Final residual = 5.00027e-08, No Iterations 0
time step continuity errors : sum local = 4.46854e-11, global = -4.50533e-12, cumulative = -2.56662e-11
GAMG:  Solving for p_rgh, Initial residual = 5.23276e-08, Final residual = 5.23276e-08, No Iterations 0
GAMG:  Solving for p_rgh, Initial residual = 5.23276e-08, Final residual = 6.83656e-09, No Iterations 4
time step continuity errors : sum local = 6.10955e-12, global = -9.27476e-13, cumulative = -2.65936e-11
ExecutionTime = 1.64 s  ClockTime = 2 s

Courant Number mean: 0.000665733 max: 0.0141286
Interface Courant Number mean: 1.45743e-05 max: 0.00959223
deltaT = 0.00516343
Time = 0.024964

PIMPLE: iteration 1
smoothSolver:  Solving for alpha.water, Initial residual = 1.45585e-05, Final residual = 7.90888e-17, No Iterations 2
Phase-1 volume fraction = 0.792414  Min(alpha.water) = 0  Max(alpha.water) = 1
MULES: Correcting alpha.water
Phase-1 volume fraction = 0.792414  Min(alpha.water) = 0  Max(alpha.water) = 1
Relaxing time: 0 s
DILUPBiCGStab:  Solving for Ux, Initial residual = 0.00108905, Final residual = 7.69683e-10, No Iterations 1
DILUPBiCGStab:  Solving for Uz, Initial residual = 0.00299005, Final residual = 7.38516e-12, No Iterations 2
GAMG:  Solving for p_rgh, Initial residual = 0.00156041, Final residual = 6.73655e-08, No Iterations 13
GAMG:  Solving for p_rgh, Initial residual = 6.73335e-08, Final residual = 6.73335e-08, No Iterations 0
time step continuity errors : sum local = 8.72005e-11, global = 1.81362e-12, cumulative = -2.478e-11
GAMG:  Solving for p_rgh, Initial residual = 1.91594e-06, Final residual = 4.37384e-08, No Iterations 2
GAMG:  Solving for p_rgh, Initial residual = 4.37384e-08, Final residual = 4.37384e-08, No Iterations 0
time step continuity errors : sum local = 5.66437e-11, global = -5.90086e-12, cumulative = -3.06809e-11
GAMG:  Solving for p_rgh, Initial residual = 4.67721e-08, Final residual = 4.67721e-08, No Iterations 0
GAMG:  Solving for p_rgh, Initial residual = 4.67721e-08, Final residual = 9.81509e-09, No Iterations 3
time step continuity errors : sum local = 1.27111e-11, global = -2.14954e-12, cumulative = -3.28304e-11
ExecutionTime = 1.79 s  ClockTime = 2 s

Courant Number mean: 0.000801218 max: 0.0170528
Interface Courant Number mean: 1.75206e-05 max: 0.0115447
deltaT = 0.0061693
Time = 0.0311333

PIMPLE: iteration 1
smoothSolver:  Solving for alpha.water, Initial residual = 1.73892e-05, Final residual = 7.96565e-17, No Iterations 2
Phase-1 volume fraction = 0.792404  Min(alpha.water) = 0  Max(alpha.water) = 1
MULES: Correcting alpha.water
Phase-1 volume fraction = 0.792404  Min(alpha.water) = 0  Max(alpha.water) = 1
Relaxing time: 0 s
DILUPBiCGStab:  Solving for Ux, Initial residual = 0.00122383, Final residual = 6.26786e-12, No Iterations 2
DILUPBiCGStab:  Solving for Uz, Initial residual = 0.0028351, Final residual = 1.12945e-11, No Iterations 2
GAMG:  Solving for p_rgh, Initial residual = 0.00120877, Final residual = 8.2661e-08, No Iterations 12
GAMG:  Solving for p_rgh, Initial residual = 8.26427e-08, Final residual = 8.26427e-08, No Iterations 0
time step continuity errors : sum local = 1.52666e-10, global = 3.98828e-12, cumulative = -2.88421e-11
GAMG:  Solving for p_rgh, Initial residual = 1.99552e-06, Final residual = 4.52046e-08, No Iterations 2
GAMG:  Solving for p_rgh, Initial residual = 4.52045e-08, Final residual = 4.52045e-08, No Iterations 0
time step continuity errors : sum local = 8.35065e-11, global = -5.92886e-12, cumulative = -3.4771e-11
GAMG:  Solving for p_rgh, Initial residual = 5.01912e-08, Final residual = 5.01912e-08, No Iterations 0
GAMG:  Solving for p_rgh, Initial residual = 5.01912e-08, Final residual = 6.21456e-09, No Iterations 4
time step continuity errors : sum local = 1.14802e-11, global = -1.85995e-12, cumulative = -3.66309e-11
ExecutionTime = 1.94 s  ClockTime = 2 s

Courant Number mean: 0.000956738 max: 0.0204328
Interface Courant Number mean: 2.14353e-05 max: 0.0137738
deltaT = 0.00744233
Time = 0.0385757

PIMPLE: iteration 1
smoothSolver:  Solving for alpha.water, Initial residual = 2.0978e-05, Final residual = 7.76606e-17, No Iterations 2
Phase-1 volume fraction = 0.792391  Min(alpha.water) = 0  Max(alpha.water) = 1
MULES: Correcting alpha.water
Phase-1 volume fraction = 0.792391  Min(alpha.water) = 0  Max(alpha.water) = 1
Relaxing time: 0 s
DILUPBiCGStab:  Solving for Ux, Initial residual = 0.00143833, Final residual = 1.31793e-11, No Iterations 2
DILUPBiCGStab:  Solving for Uz, Initial residual = 0.00285772, Final residual = 1.85165e-11, No Iterations 2
GAMG:  Solving for p_rgh, Initial residual = 0.0010708, Final residual = 6.96133e-08, No Iterations 12
GAMG:  Solving for p_rgh, Initial residual = 6.96075e-08, Final residual = 6.96075e-08, No Iterations 0
time step continuity errors : sum local = 1.86975e-10, global = 5.18722e-12, cumulative = -3.14437e-11
GAMG:  Solving for p_rgh, Initial residual = 2.36605e-06, Final residual = 4.60403e-08, No Iterations 2
GAMG:  Solving for p_rgh, Initial residual = 4.60403e-08, Final residual = 4.60403e-08, No Iterations 0
time step continuity errors : sum local = 1.2367e-10, global = -1.0153e-11, cumulative = -4.15967e-11
GAMG:  Solving for p_rgh, Initial residual = 5.38629e-08, Final residual = 5.38629e-08, No Iterations 0
GAMG:  Solving for p_rgh, Initial residual = 5.38629e-08, Final residual = 6.30584e-09, No Iterations 4
time step continuity errors : sum local = 1.69383e-11, global = -3.04584e-12, cumulative = -4.46426e-11
ExecutionTime = 2.09 s  ClockTime = 2 s

Courant Number mean: 0.00115352 max: 0.0247362
Interface Courant Number mean: 2.75661e-05 max: 0.0165772
deltaT = 0.00887354
Time = 0.0474492

PIMPLE: iteration 1
smoothSolver:  Solving for alpha.water, Initial residual = 2.50119e-05, Final residual = 7.50771e-17, No Iterations 2
Phase-1 volume fraction = 0.792376  Min(alpha.water) = 0  Max(alpha.water) = 1
MULES: Correcting alpha.water
Phase-1 volume fraction = 0.792376  Min(alpha.water) = 0  Max(alpha.water) = 1
Relaxing time: 0 s
DILUPBiCGStab:  Solving for Ux, Initial residual = 0.00169314, Final residual = 2.66236e-11, No Iterations 2
DILUPBiCGStab:  Solving for Uz, Initial residual = 0.00296853, Final residual = 2.97174e-11, No Iterations 2
GAMG:  Solving for p_rgh, Initial residual = 0.000979158, Final residual = 6.17321e-08, No Iterations 12
GAMG:  Solving for p_rgh, Initial residual = 6.17364e-08, Final residual = 6.17364e-08, No Iterations 0
time step continuity errors : sum local = 2.35541e-10, global = 7.84864e-12, cumulative = -3.67939e-11
GAMG:  Solving for p_rgh, Initial residual = 2.9209e-06, Final residual = 5.05044e-08, No Iterations 2
GAMG:  Solving for p_rgh, Initial residual = 5.05044e-08, Final residual = 5.05044e-08, No Iterations 0
time step continuity errors : sum local = 1.92689e-10, global = -1.46151e-11, cumulative = -5.1409e-11
GAMG:  Solving for p_rgh, Initial residual = 6.32821e-08, Final residual = 6.32821e-08, No Iterations 0
GAMG:  Solving for p_rgh, Initial residual = 6.32821e-08, Final residual = 7.22402e-09, No Iterations 4
time step continuity errors : sum local = 2.75617e-11, global = -4.89245e-12, cumulative = -5.63015e-11
ExecutionTime = 2.25 s  ClockTime = 3 s

Courant Number mean: 0.00137461 max: 0.0296198
Interface Courant Number mean: 3.31134e-05 max: 0.0196998
deltaT = 0.0105244
Time = 0.0579737

PIMPLE: iteration 1
smoothSolver:  Solving for alpha.water, Initial residual = 2.96584e-05, Final residual = 7.665e-17, No Iterations 2
Phase-1 volume fraction = 0.792357  Min(alpha.water) = 0  Max(alpha.water) = 1
MULES: Correcting alpha.water
Phase-1 volume fraction = 0.792357  Min(alpha.water) = 0  Max(alpha.water) = 1
Relaxing time: 0 s
DILUPBiCGStab:  Solving for Ux, Initial residual = 0.00200315, Final residual = 5.24833e-11, No Iterations 2
DILUPBiCGStab:  Solving for Uz, Initial residual = 0.00324155, Final residual = 4.84164e-11, No Iterations 2
GAMG:  Solving for p_rgh, Initial residual = 0.00098063, Final residual = 9.63156e-08, No Iterations 11
GAMG:  Solving for p_rgh, Initial residual = 9.63275e-08, Final residual = 9.63275e-08, No Iterations 0
time step continuity errors : sum local = 5.16552e-10, global = 2.47741e-11, cumulative = -3.15274e-11
GAMG:  Solving for p_rgh, Initial residual = 3.77028e-06, Final residual = 6.22437e-08, No Iterations 2
GAMG:  Solving for p_rgh, Initial residual = 6.22436e-08, Final residual = 6.22436e-08, No Iterations 0
time step continuity errors : sum local = 3.3378e-10, global = -1.28648e-11, cumulative = -4.43922e-11
GAMG:  Solving for p_rgh, Initial residual = 8.30219e-08, Final residual = 8.30219e-08, No Iterations 0
GAMG:  Solving for p_rgh, Initial residual = 8.30219e-08, Final residual = 8.8033e-09, No Iterations 4
time step continuity errors : sum local = 4.72075e-11, global = -8.88202e-12, cumulative = -5.32742e-11
ExecutionTime = 2.39 s  ClockTime = 3 s

Courant Number mean: 0.00162949 max: 0.0353111
Interface Courant Number mean: 3.91183e-05 max: 0.023262
deltaT = 0.0126293
Time = 0.070603

PIMPLE: iteration 1
smoothSolver:  Solving for alpha.water, Initial residual = 3.55737e-05, Final residual = 7.92426e-17, No Iterations 2
Phase-1 volume fraction = 0.792336  Min(alpha.water) = 0  Max(alpha.water) = 1
MULES: Correcting alpha.water
Phase-1 volume fraction = 0.792336  Min(alpha.water) = 0  Max(alpha.water) = 1
Relaxing time: 0 s
DILUPBiCGStab:  Solving for Ux, Initial residual = 0.00240964, Final residual = 1.08225e-10, No Iterations 2
DILUPBiCGStab:  Solving for Uz, Initial residual = 0.00373863, Final residual = 9.12844e-11, No Iterations 2
GAMG:  Solving for p_rgh, Initial residual = 0.00104644, Final residual = 6.3312e-08, No Iterations 12
GAMG:  Solving for p_rgh, Initial residual = 6.33239e-08, Final residual = 6.33239e-08, No Iterations 0
time step continuity errors : sum local = 4.88517e-10, global = 2.412e-11, cumulative = -2.91543e-11
GAMG:  Solving for p_rgh, Initial residual = 5.04463e-06, Final residual = 8.00259e-08, No Iterations 2
GAMG:  Solving for p_rgh, Initial residual = 8.00258e-08, Final residual = 8.00258e-08, No Iterations 0
time step continuity errors : sum local = 6.17368e-10, global = -4.15085e-11, cumulative = -7.06627e-11
GAMG:  Solving for p_rgh, Initial residual = 1.13702e-07, Final residual = 4.794e-08, No Iterations 1
GAMG:  Solving for p_rgh, Initial residual = 4.794e-08, Final residual = 7.49266e-09, No Iterations 4
time step continuity errors : sum local = 5.78029e-11, global = -7.5785e-12, cumulative = -7.82412e-11
ExecutionTime = 2.55 s  ClockTime = 3 s

Courant Number mean: 0.0019545 max: 0.0426343
Interface Courant Number mean: 4.67355e-05 max: 0.0277536
deltaT = 0.0153356
Time = 0.0859386

PIMPLE: iteration 1
smoothSolver:  Solving for alpha.water, Initial residual = 4.31652e-05, Final residual = 7.67428e-17, No Iterations 2
Phase-1 volume fraction = 0.792309  Min(alpha.water) = 0  Max(alpha.water) = 1
MULES: Correcting alpha.water
Phase-1 volume fraction = 0.792309  Min(alpha.water) = 0  Max(alpha.water) = 1
Relaxing time: 0.01 s
DILUPBiCGStab:  Solving for Ux, Initial residual = 0.00293281, Final residual = 2.33521e-10, No Iterations 2
DILUPBiCGStab:  Solving for Uz, Initial residual = 0.00449292, Final residual = 2.06078e-10, No Iterations 2
GAMG:  Solving for p_rgh, Initial residual = 0.00116171, Final residual = 7.14875e-08, No Iterations 12
GAMG:  Solving for p_rgh, Initial residual = 7.15071e-08, Final residual = 7.15071e-08, No Iterations 0
time step continuity errors : sum local = 8.12467e-10, global = 5.08654e-11, cumulative = -2.73759e-11
GAMG:  Solving for p_rgh, Initial residual = 7.00264e-06, Final residual = 6.72416e-08, No Iterations 3
GAMG:  Solving for p_rgh, Initial residual = 6.72416e-08, Final residual = 6.72416e-08, No Iterations 0
time step continuity errors : sum local = 7.64005e-10, global = -1.06009e-10, cumulative = -1.33385e-10
GAMG:  Solving for p_rgh, Initial residual = 1.3217e-07, Final residual = 4.51731e-08, No Iterations 1
GAMG:  Solving for p_rgh, Initial residual = 4.51732e-08, Final residual = 6.70877e-09, No Iterations 4
time step continuity errors : sum local = 7.62255e-11, global = -7.13701e-12, cumulative = -1.40522e-10
ExecutionTime = 2.71 s  ClockTime = 3 s

Courant Number mean: 0.00237236 max: 0.0521553
Interface Courant Number mean: 5.95065e-05 max: 0.0334476
deltaT = 0.0180027
Time = 0.103941

PIMPLE: iteration 1
smoothSolver:  Solving for alpha.water, Initial residual = 5.06195e-05, Final residual = 7.35349e-17, No Iterations 2
Phase-1 volume fraction = 0.792278  Min(alpha.water) = 0  Max(alpha.water) = 1
MULES: Correcting alpha.water
Phase-1 volume fraction = 0.792278  Min(alpha.water) = 0  Max(alpha.water) = 1
Relaxing time: 0 s
DILUPBiCGStab:  Solving for Ux, Initial residual = 0.00345077, Final residual = 4.70433e-10, No Iterations 2
DILUPBiCGStab:  Solving for Uz, Initial residual = 0.00529307, Final residual = 7.78835e-10, No Iterations 2
GAMG:  Solving for p_rgh, Initial residual = 0.00126109, Final residual = 8.21308e-08, No Iterations 12
GAMG:  Solving for p_rgh, Initial residual = 8.21606e-08, Final residual = 8.21606e-08, No Iterations 0
time step continuity errors : sum local = 1.28495e-09, global = 1.11827e-10, cumulative = -2.86945e-11
GAMG:  Solving for p_rgh, Initial residual = 9.91632e-06, Final residual = 8.37567e-08, No Iterations 3
GAMG:  Solving for p_rgh, Initial residual = 8.37565e-08, Final residual = 8.37565e-08, No Iterations 0
time step continuity errors : sum local = 1.30992e-09, global = -6.8321e-11, cumulative = -9.70155e-11
GAMG:  Solving for p_rgh, Initial residual = 1.88814e-07, Final residual = 5.53675e-08, No Iterations 1
GAMG:  Solving for p_rgh, Initial residual = 5.53676e-08, Final residual = 8.21836e-09, No Iterations 4
time step continuity errors : sum local = 1.28532e-10, global = -1.39705e-11, cumulative = -1.10986e-10
ExecutionTime = 2.86 s  ClockTime = 3 s

Courant Number mean: 0.00278415 max: 0.0617599
Interface Courant Number mean: 6.99758e-05 max: 0.038895
deltaT = 0.0220033
Time = 0.125945

PIMPLE: iteration 1
smoothSolver:  Solving for alpha.water, Initial residual = 6.18138e-05, Final residual = 1.71898e-15, No Iterations 2
Phase-1 volume fraction = 0.79224  Min(alpha.water) = 0  Max(alpha.water) = 1
MULES: Correcting alpha.water
Phase-1 volume fraction = 0.79224  Min(alpha.water) = 0  Max(alpha.water) = 1
Relaxing time: 0 s
DILUPBiCGStab:  Solving for Ux, Initial residual = 0.00422506, Final residual = 1.93654e-11, No Iterations 2
DILUPBiCGStab:  Solving for Uz, Initial residual = 0.00664907, Final residual = 3.48041e-11, No Iterations 2
GAMG:  Solving for p_rgh, Initial residual = 0.00149241, Final residual = 6.41571e-08, No Iterations 13
GAMG:  Solving for p_rgh, Initial residual = 6.4186e-08, Final residual = 6.4186e-08, No Iterations 0
time step continuity errors : sum local = 1.49742e-09, global = 1.23099e-10, cumulative = 1.2113e-11
GAMG:  Solving for p_rgh, Initial residual = 1.56122e-05, Final residual = 7.74686e-08, No Iterations 4
GAMG:  Solving for p_rgh, Initial residual = 7.74681e-08, Final residual = 7.74681e-08, No Iterations 0
time step continuity errors : sum local = 1.80731e-09, global = 5.15013e-11, cumulative = 6.36143e-11
GAMG:  Solving for p_rgh, Initial residual = 2.89469e-07, Final residual = 5.32309e-08, No Iterations 1
GAMG:  Solving for p_rgh, Initial residual = 5.32309e-08, Final residual = 7.84289e-09, No Iterations 4
time step continuity errors : sum local = 1.82972e-10, global = -1.628e-11, cumulative = 4.73343e-11
ExecutionTime = 3.03 s  ClockTime = 3 s

Courant Number mean: 0.0034025 max: 0.0762795
Interface Courant Number mean: 0.000101192 max: 0.049748
deltaT = 0.0267182
Time = 0.152663

PIMPLE: iteration 1
smoothSolver:  Solving for alpha.water, Initial residual = 7.49948e-05, Final residual = 1.18859e-14, No Iterations 2
Phase-1 volume fraction = 0.792194  Min(alpha.water) = 0  Max(alpha.water) = 1
MULES: Correcting alpha.water
Phase-1 volume fraction = 0.792194  Min(alpha.water) = 0  Max(alpha.water) = 1
Relaxing time: 0.01 s
DILUPBiCGStab:  Solving for Ux, Initial residual = 0.00513404, Final residual = 5.69947e-11, No Iterations 2
DILUPBiCGStab:  Solving for Uz, Initial residual = 0.00838053, Final residual = 1.42661e-10, No Iterations 2
GAMG:  Solving for p_rgh, Initial residual = 0.00173928, Final residual = 7.87237e-08, No Iterations 13
GAMG:  Solving for p_rgh, Initial residual = 7.87694e-08, Final residual = 7.87694e-08, No Iterations 0
time step continuity errors : sum local = 2.70459e-09, global = 2.2943e-10, cumulative = 2.76765e-10
GAMG:  Solving for p_rgh, Initial residual = 2.13859e-05, Final residual = 8.99875e-08, No Iterations 4
GAMG:  Solving for p_rgh, Initial residual = 8.99862e-08, Final residual = 8.99862e-08, No Iterations 0
time step continuity errors : sum local = 3.0898e-09, global = 3.78185e-10, cumulative = 6.5495e-10
GAMG:  Solving for p_rgh, Initial residual = 4.56746e-07, Final residual = 7.1709e-08, No Iterations 1
GAMG:  Solving for p_rgh, Initial residual = 7.1709e-08, Final residual = 9.33324e-09, No Iterations 4
time step continuity errors : sum local = 3.2047e-10, global = -5.70696e-12, cumulative = 6.49243e-10
ExecutionTime = 3.19 s  ClockTime = 4 s

Courant Number mean: 0.00413295 max: 0.093795
Interface Courant Number mean: 0.000122195 max: 0.060216
deltaT = 0.0315761
Time = 0.184239

PIMPLE: iteration 1
smoothSolver:  Solving for alpha.water, Initial residual = 8.85031e-05, Final residual = 4.62935e-14, No Iterations 2
Phase-1 volume fraction = 0.79214  Min(alpha.water) = 0  Max(alpha.water) = 1
MULES: Correcting alpha.water
Phase-1 volume fraction = 0.79214  Min(alpha.water) = 0  Max(alpha.water) = 1
Relaxing time: 0 s
DILUPBiCGStab:  Solving for Ux, Initial residual = 0.00607057, Final residual = 1.24551e-10, No Iterations 2
DILUPBiCGStab:  Solving for Uz, Initial residual = 0.0103299, Final residual = 3.46636e-10, No Iterations 2
GAMG:  Solving for p_rgh, Initial residual = 0.00198806, Final residual = 9.58832e-08, No Iterations 13
GAMG:  Solving for p_rgh, Initial residual = 9.59427e-08, Final residual = 9.59427e-08, No Iterations 0
time step continuity errors : sum local = 4.59247e-09, global = 7.57705e-11, cumulative = 7.25013e-10
GAMG:  Solving for p_rgh, Initial residual = 2.71657e-05, Final residual = 9.96755e-08, No Iterations 4
GAMG:  Solving for p_rgh, Initial residual = 9.96722e-08, Final residual = 9.96722e-08, No Iterations 0
time step continuity errors : sum local = 4.77122e-09, global = 1.24042e-09, cumulative = 1.96543e-09
GAMG:  Solving for p_rgh, Initial residual = 6.99304e-07, Final residual = 9.43101e-08, No Iterations 1
GAMG:  Solving for p_rgh, Initial residual = 9.43101e-08, Final residual = 8.08466e-09, No Iterations 5
time step continuity errors : sum local = 3.87006e-10, global = 1.25651e-11, cumulative = 1.978e-09
ExecutionTime = 3.36 s  ClockTime = 4 s

Courant Number mean: 0.00488889 max: 0.112484
Interface Courant Number mean: 0.000147118 max: 0.0708294
deltaT = 0.0394701
Time = 0.223709

PIMPLE: iteration 1
smoothSolver:  Solving for alpha.water, Initial residual = 0.000110481, Final residual = 2.04204e-13, No Iterations 2
Phase-1 volume fraction = 0.792072  Min(alpha.water) = 0  Max(alpha.water) = 1
MULES: Correcting alpha.water
Phase-1 volume fraction = 0.792072  Min(alpha.water) = -1.22826e-12  Max(alpha.water) = 1
Relaxing time: 0.01 s
DILUPBiCGStab:  Solving for Ux, Initial residual = 0.00758341, Final residual = 3.60441e-10, No Iterations 2
DILUPBiCGStab:  Solving for Uz, Initial residual = 0.0138444, Final residual = 9.92006e-12, No Iterations 3
GAMG:  Solving for p_rgh, Initial residual = 0.00242101, Final residual = 7.96433e-08, No Iterations 14
GAMG:  Solving for p_rgh, Initial residual = 7.96663e-08, Final residual = 7.96663e-08, No Iterations 0
time step continuity errors : sum local = 5.94888e-09, global = -8.85444e-11, cumulative = 1.88945e-09
GAMG:  Solving for p_rgh, Initial residual = 4.10628e-05, Final residual = 7.43591e-08, No Iterations 6
GAMG:  Solving for p_rgh, Initial residual = 7.43544e-08, Final residual = 7.43544e-08, No Iterations 0
time step continuity errors : sum local = 5.55271e-09, global = 5.91319e-10, cumulative = 2.48077e-09
GAMG:  Solving for p_rgh, Initial residual = 1.23354e-06, Final residual = 3.7227e-08, No Iterations 2
GAMG:  Solving for p_rgh, Initial residual = 3.7227e-08, Final residual = 6.59399e-09, No Iterations 4
time step continuity errors : sum local = 4.92433e-10, global = 9.02602e-12, cumulative = 2.4898e-09
ExecutionTime = 3.53 s  ClockTime = 4 s

Courant Number mean: 0.00612336 max: 0.143146
Interface Courant Number mean: 0.000183458 max: 0.0878692
deltaT = 0.0460485
Time = 0.269758

PIMPLE: iteration 1
smoothSolver:  Solving for alpha.water, Initial residual = 0.00012868, Final residual = 5.87723e-13, No Iterations 2
Phase-1 volume fraction = 0.791993  Min(alpha.water) = 0  Max(alpha.water) = 1
MULES: Correcting alpha.water
Phase-1 volume fraction = 0.791993  Min(alpha.water) = -1.86274e-11  Max(alpha.water) = 1
Relaxing time: 0 s
DILUPBiCGStab:  Solving for Ux, Initial residual = 0.00882545, Final residual = 8.42647e-10, No Iterations 2
DILUPBiCGStab:  Solving for Uz, Initial residual = 0.017104, Final residual = 2.45838e-11, No Iterations 3
GAMG:  Solving for p_rgh, Initial residual = 0.00270967, Final residual = 9.33511e-08, No Iterations 14
GAMG:  Solving for p_rgh, Initial residual = 9.33523e-08, Final residual = 9.33523e-08, No Iterations 0
time step continuity errors : sum local = 9.48016e-09, global = -5.3447e-10, cumulative = 1.95533e-09
GAMG:  Solving for p_rgh, Initial residual = 5.43945e-05, Final residual = 6.74735e-08, No Iterations 7
GAMG:  Solving for p_rgh, Initial residual = 6.74672e-08, Final residual = 6.74672e-08, No Iterations 0
time step continuity errors : sum local = 6.85233e-09, global = 4.44306e-10, cumulative = 2.39964e-09
GAMG:  Solving for p_rgh, Initial residual = 1.8089e-06, Final residual = 3.72413e-08, No Iterations 2
GAMG:  Solving for p_rgh, Initial residual = 3.72413e-08, Final residual = 6.31773e-09, No Iterations 4
time step continuity errors : sum local = 6.41663e-10, global = 2.60828e-12, cumulative = 2.40224e-09
ExecutionTime = 3.71 s  ClockTime = 4 s

Courant Number mean: 0.0071699 max: 0.170467
Interface Courant Number mean: 0.000212427 max: 0.101397
deltaT = 0.0575606
Time = 0.327318

PIMPLE: iteration 1
smoothSolver:  Solving for alpha.water, Initial residual = 0.000160532, Final residual = 2.01989e-12, No Iterations 2
Phase-1 volume fraction = 0.791895  Min(alpha.water) = 0  Max(alpha.water) = 1
MULES: Correcting alpha.water
Phase-1 volume fraction = 0.791895  Min(alpha.water) = -2.56466e-10  Max(alpha.water) = 1
Relaxing time: 0 s
DILUPBiCGStab:  Solving for Ux, Initial residual = 0.0109951, Final residual = 4.92562e-11, No Iterations 3
DILUPBiCGStab:  Solving for Uz, Initial residual = 0.0234864, Final residual = 1.12853e-10, No Iterations 3
GAMG:  Solving for p_rgh, Initial residual = 0.00329311, Final residual = 8.06307e-08, No Iterations 15
GAMG:  Solving for p_rgh, Initial residual = 8.06105e-08, Final residual = 8.06105e-08, No Iterations 0
time step continuity errors : sum local = 1.27785e-08, global = -6.5043e-10, cumulative = 1.75181e-09
GAMG:  Solving for p_rgh, Initial residual = 8.38193e-05, Final residual = 6.54595e-08, No Iterations 8
GAMG:  Solving for p_rgh, Initial residual = 6.54498e-08, Final residual = 6.54498e-08, No Iterations 0
time step continuity errors : sum local = 1.03772e-08, global = 4.38614e-10, cumulative = 2.19043e-09
GAMG:  Solving for p_rgh, Initial residual = 3.27628e-06, Final residual = 4.68493e-08, No Iterations 2
GAMG:  Solving for p_rgh, Initial residual = 4.68493e-08, Final residual = 7.99114e-09, No Iterations 4
time step continuity errors : sum local = 1.26702e-09, global = -8.4058e-11, cumulative = 2.10637e-09
ExecutionTime = 3.89 s  ClockTime = 4 s

Courant Number mean: 0.00901668 max: 0.218466
Interface Courant Number mean: 0.000232134 max: 0.125102
deltaT = 0.0575606
Time = 0.384879

PIMPLE: iteration 1
smoothSolver:  Solving for alpha.water, Initial residual = 0.000160287, Final residual = 2.02912e-12, No Iterations 2
Phase-1 volume fraction = 0.791796  Min(alpha.water) = 0  Max(alpha.water) = 1
MULES: Correcting alpha.water
Phase-1 volume fraction = 0.791796  Min(alpha.water) = -9.55571e-10  Max(alpha.water) = 1
Relaxing time: 0 s
DILUPBiCGStab:  Solving for Ux, Initial residual = 0.0108973, Final residual = 4.54008e-11, No Iterations 3
DILUPBiCGStab:  Solving for Uz, Initial residual = 0.0236475, Final residual = 1.13619e-10, No Iterations 3
GAMG:  Solving for p_rgh, Initial residual = 0.00310565, Final residual = 7.95627e-08, No Iterations 15
GAMG:  Solving for p_rgh, Initial residual = 7.9558e-08, Final residual = 7.9558e-08, No Iterations 0
time step continuity errors : sum local = 1.26115e-08, global = -5.64566e-10, cumulative = 1.5418e-09
GAMG:  Solving for p_rgh, Initial residual = 8.43206e-05, Final residual = 9.96561e-08, No Iterations 7
GAMG:  Solving for p_rgh, Initial residual = 9.96425e-08, Final residual = 9.96425e-08, No Iterations 0
time step continuity errors : sum local = 1.57982e-08, global = 9.19119e-10, cumulative = 2.46092e-09
GAMG:  Solving for p_rgh, Initial residual = 3.21875e-06, Final residual = 5.90298e-08, No Iterations 2
GAMG:  Solving for p_rgh, Initial residual = 5.90298e-08, Final residual = 6.48558e-09, No Iterations 5
time step continuity errors : sum local = 1.02828e-09, global = -3.4112e-12, cumulative = 2.45751e-09
ExecutionTime = 4.07 s  ClockTime = 4 s

Courant Number mean: 0.00908876 max: 0.223937
Interface Courant Number mean: 0.000228636 max: 0.123603
deltaT = 0.0575606
Time = 0.442439

PIMPLE: iteration 1
smoothSolver:  Solving for alpha.water, Initial residual = 0.000160777, Final residual = 2.70856e-12, No Iterations 2
Phase-1 volume fraction = 0.791698  Min(alpha.water) = 0  Max(alpha.water) = 1
MULES: Correcting alpha.water
Phase-1 volume fraction = 0.791698  Min(alpha.water) = -2.84854e-09  Max(alpha.water) = 1
Relaxing time: 0 s
DILUPBiCGStab:  Solving for Ux, Initial residual = 0.0107604, Final residual = 4.04087e-11, No Iterations 3
DILUPBiCGStab:  Solving for Uz, Initial residual = 0.0238507, Final residual = 1.13067e-10, No Iterations 3
GAMG:  Solving for p_rgh, Initial residual = 0.00304899, Final residual = 8.50071e-08, No Iterations 15
GAMG:  Solving for p_rgh, Initial residual = 8.50127e-08, Final residual = 8.50127e-08, No Iterations 0
time step continuity errors : sum local = 1.34701e-08, global = -3.92769e-10, cumulative = 2.06474e-09
GAMG:  Solving for p_rgh, Initial residual = 8.32736e-05, Final residual = 6.31095e-08, No Iterations 8
GAMG:  Solving for p_rgh, Initial residual = 6.31012e-08, Final residual = 6.31012e-08, No Iterations 0
time step continuity errors : sum local = 1.00001e-08, global = 3.79513e-10, cumulative = 2.44426e-09
GAMG:  Solving for p_rgh, Initial residual = 3.17414e-06, Final residual = 4.56567e-08, No Iterations 2
GAMG:  Solving for p_rgh, Initial residual = 4.56567e-08, Final residual = 8.20134e-09, No Iterations 4
time step continuity errors : sum local = 1.29972e-09, global = -7.44825e-11, cumulative = 2.36977e-09
ExecutionTime = 4.26 s  ClockTime = 5 s

Courant Number mean: 0.00919672 max: 0.229358
Interface Courant Number mean: 0.000239596 max: 0.121735
deltaT = 0.0575606
Time = 0.5

PIMPLE: iteration 1
smoothSolver:  Solving for alpha.water, Initial residual = 0.000162628, Final residual = 1.05417e-11, No Iterations 2
Phase-1 volume fraction = 0.791601  Min(alpha.water) = 0  Max(alpha.water) = 1
MULES: Correcting alpha.water
Phase-1 volume fraction = 0.791601  Min(alpha.water) = -6.88005e-09  Max(alpha.water) = 1
Relaxing time: 0.01 s
DILUPBiCGStab:  Solving for Ux, Initial residual = 0.0106869, Final residual = 3.59281e-11, No Iterations 3
DILUPBiCGStab:  Solving for Uz, Initial residual = 0.0240684, Final residual = 1.10966e-10, No Iterations 3
GAMG:  Solving for p_rgh, Initial residual = 0.00308729, Final residual = 8.71731e-08, No Iterations 15
GAMG:  Solving for p_rgh, Initial residual = 8.72027e-08, Final residual = 8.72027e-08, No Iterations 0
time step continuity errors : sum local = 1.38013e-08, global = -1.02544e-10, cumulative = 2.26723e-09
GAMG:  Solving for p_rgh, Initial residual = 8.34417e-05, Final residual = 9.97858e-08, No Iterations 7
GAMG:  Solving for p_rgh, Initial residual = 9.97742e-08, Final residual = 9.97742e-08, No Iterations 0
time step continuity errors : sum local = 1.57936e-08, global = 8.7903e-10, cumulative = 3.14626e-09
GAMG:  Solving for p_rgh, Initial residual = 3.24945e-06, Final residual = 6.16372e-08, No Iterations 2
GAMG:  Solving for p_rgh, Initial residual = 6.16372e-08, Final residual = 7.33914e-09, No Iterations 5
time step continuity errors : sum local = 1.16174e-09, global = -2.16684e-12, cumulative = 3.14409e-09
ExecutionTime = 4.45 s  ClockTime = 5 s

Courant Number mean: 0.00932132 max: 0.234736
Interface Courant Number mean: 0.000239872 max: 0.119511
deltaT = 0.05
Time = 0.55

PIMPLE: iteration 1
smoothSolver:  Solving for alpha.water, Initial residual = 0.000142954, Final residual = 1.1064e-11, No Iterations 2
Phase-1 volume fraction = 0.791516  Min(alpha.water) = 0  Max(alpha.water) = 1
MULES: Correcting alpha.water
Phase-1 volume fraction = 0.791516  Min(alpha.water) = -7.39496e-09  Max(alpha.water) = 1
Relaxing time: 0 s
DILUPBiCGStab:  Solving for Ux, Initial residual = 0.00919398, Final residual = 8.53683e-10, No Iterations 2
DILUPBiCGStab:  Solving for Uz, Initial residual = 0.0199567, Final residual = 4.32918e-11, No Iterations 3
GAMG:  Solving for p_rgh, Initial residual = 0.00272278, Final residual = 8.27693e-08, No Iterations 15
GAMG:  Solving for p_rgh, Initial residual = 8.28147e-08, Final residual = 8.28147e-08, No Iterations 0
time step continuity errors : sum local = 9.88395e-09, global = 9.0183e-11, cumulative = 3.23428e-09
GAMG:  Solving for p_rgh, Initial residual = 6.30665e-05, Final residual = 7.79722e-08, No Iterations 7
GAMG:  Solving for p_rgh, Initial residual = 7.79659e-08, Final residual = 7.79659e-08, No Iterations 0
time step continuity errors : sum local = 9.30632e-09, global = 4.97685e-10, cumulative = 3.73196e-09
GAMG:  Solving for p_rgh, Initial residual = 2.19987e-06, Final residual = 4.64517e-08, No Iterations 2
GAMG:  Solving for p_rgh, Initial residual = 4.64517e-08, Final residual = 8.76638e-09, No Iterations 4
time step continuity errors : sum local = 1.04639e-09, global = 7.18773e-12, cumulative = 3.73915e-09
ExecutionTime = 4.64 s  ClockTime = 5 s

Courant Number mean: 0.00820254 max: 0.207939
Interface Courant Number mean: 0.000212878 max: 0.101903
deltaT = 0.05
Time = 0.6

PIMPLE: iteration 1
smoothSolver:  Solving for alpha.water, Initial residual = 0.000144382, Final residual = 1.77353e-11, No Iterations 2
Phase-1 volume fraction = 0.791432  Min(alpha.water) = 0  Max(alpha.water) = 1
MULES: Correcting alpha.water
Phase-1 volume fraction = 0.791432  Min(alpha.water) = -3.0466e-10  Max(alpha.water) = 1
Relaxing time: 0 s
DILUPBiCGStab:  Solving for Ux, Initial residual = 0.00914086, Final residual = 7.95102e-10, No Iterations 2
DILUPBiCGStab:  Solving for Uz, Initial residual = 0.0200501, Final residual = 4.11323e-11, No Iterations 3
GAMG:  Solving for p_rgh, Initial residual = 0.00278764, Final residual = 8.51607e-08, No Iterations 15
GAMG:  Solving for p_rgh, Initial residual = 8.52081e-08, Final residual = 8.52081e-08, No Iterations 0
time step continuity errors : sum local = 1.01491e-08, global = 5.41219e-10, cumulative = 4.28037e-09
GAMG:  Solving for p_rgh, Initial residual = 6.05167e-05, Final residual = 8.20483e-08, No Iterations 7
GAMG:  Solving for p_rgh, Initial residual = 8.2042e-08, Final residual = 8.2042e-08, No Iterations 0
time step continuity errors : sum local = 9.77303e-09, global = 5.49859e-10, cumulative = 4.83023e-09
GAMG:  Solving for p_rgh, Initial residual = 2.12045e-06, Final residual = 4.816e-08, No Iterations 2
GAMG:  Solving for p_rgh, Initial residual = 4.816e-08, Final residual = 9.1726e-09, No Iterations 4
time step continuity errors : sum local = 1.09266e-09, global = 1.14738e-11, cumulative = 4.8417e-09
ExecutionTime = 4.81 s  ClockTime = 5 s

Courant Number mean: 0.00831593 max: 0.211951
Interface Courant Number mean: 0.00022221 max: 0.0997481
deltaT = 0.05
Time = 0.65

PIMPLE: iteration 1
smoothSolver:  Solving for alpha.water, Initial residual = 0.000145727, Final residual = 2.57288e-11, No Iterations 2
Phase-1 volume fraction = 0.791348  Min(alpha.water) = 0  Max(alpha.water) = 1
MULES: Correcting alpha.water
Phase-1 volume fraction = 0.791348  Min(alpha.water) = -6.0374e-10  Max(alpha.water) = 1
Relaxing time: 0 s
DILUPBiCGStab:  Solving for Ux, Initial residual = 0.00911142, Final residual = 7.46917e-10, No Iterations 2
DILUPBiCGStab:  Solving for Uz, Initial residual = 0.0200925, Final residual = 3.80144e-11, No Iterations 3
GAMG:  Solving for p_rgh, Initial residual = 0.0028838, Final residual = 8.00029e-08, No Iterations 15
GAMG:  Solving for p_rgh, Initial residual = 8.00633e-08, Final residual = 8.00633e-08, No Iterations 0
time step continuity errors : sum local = 9.51167e-09, global = 4.69511e-10, cumulative = 5.31121e-09
GAMG:  Solving for p_rgh, Initial residual = 5.8332e-05, Final residual = 8.55393e-08, No Iterations 7
GAMG:  Solving for p_rgh, Initial residual = 8.55327e-08, Final residual = 8.55327e-08, No Iterations 0
time step continuity errors : sum local = 1.01626e-08, global = 6.49553e-10, cumulative = 5.96077e-09
GAMG:  Solving for p_rgh, Initial residual = 2.04663e-06, Final residual = 4.84033e-08, No Iterations 2
GAMG:  Solving for p_rgh, Initial residual = 4.84033e-08, Final residual = 9.22227e-09, No Iterations 4
time step continuity errors : sum local = 1.09574e-09, global = 1.56994e-11, cumulative = 5.97646e-09
ExecutionTime = 5 s  ClockTime = 5 s

Courant Number mean: 0.00843287 max: 0.216477
Interface Courant Number mean: 0.000259627 max: 0.107234
deltaT = 0.04375
Time = 0.69375

PIMPLE: iteration 1
smoothSolver:  Solving for alpha.water, Initial residual = 0.000128607, Final residual = 2.04833e-11, No Iterations 2
Phase-1 volume fraction = 0.791276  Min(alpha.water) = 0  Max(alpha.water) = 1
MULES: Correcting alpha.water
Phase-1 volume fraction = 0.791276  Min(alpha.water) = -5.99545e-10  Max(alpha.water) = 1
Relaxing time: 0 s
DILUPBiCGStab:  Solving for Ux, Initial residual = 0.00792882, Final residual = 3.52048e-10, No Iterations 2
DILUPBiCGStab:  Solving for Uz, Initial residual = 0.0167924, Final residual = 1.44942e-11, No Iterations 3
GAMG:  Solving for p_rgh, Initial residual = 0.00258773, Final residual = 9.77199e-08, No Iterations 14
GAMG:  Solving for p_rgh, Initial residual = 9.77942e-08, Final residual = 9.77942e-08, No Iterations 0
time step continuity errors : sum local = 8.88686e-09, global = 4.1418e-10, cumulative = 6.39064e-09
GAMG:  Solving for p_rgh, Initial residual = 4.39732e-05, Final residual = 6.62493e-08, No Iterations 7
GAMG:  Solving for p_rgh, Initial residual = 6.62455e-08, Final residual = 6.62455e-08, No Iterations 0
time step continuity errors : sum local = 6.02043e-09, global = 4.2891e-10, cumulative = 6.81956e-09
GAMG:  Solving for p_rgh, Initial residual = 1.34152e-06, Final residual = 3.56376e-08, No Iterations 2
GAMG:  Solving for p_rgh, Initial residual = 3.56376e-08, Final residual = 6.81423e-09, No Iterations 4
time step continuity errors : sum local = 6.1928e-10, global = 9.69963e-12, cumulative = 6.82925e-09
ExecutionTime = 5.19 s  ClockTime = 6 s

Courant Number mean: 0.00746931 max: 0.192837
Interface Courant Number mean: 0.000229359 max: 0.0928977
deltaT = 0.04375
Time = 0.7375

PIMPLE: iteration 1
smoothSolver:  Solving for alpha.water, Initial residual = 0.000129633, Final residual = 2.62651e-11, No Iterations 2
Phase-1 volume fraction = 0.791203  Min(alpha.water) = 0  Max(alpha.water) = 1
MULES: Correcting alpha.water
Phase-1 volume fraction = 0.791203  Min(alpha.water) = -1.03216e-09  Max(alpha.water) = 1
Relaxing time: 0 s
DILUPBiCGStab:  Solving for Ux, Initial residual = 0.00791759, Final residual = 3.35066e-10, No Iterations 2
DILUPBiCGStab:  Solving for Uz, Initial residual = 0.0168795, Final residual = 1.41647e-11, No Iterations 3
GAMG:  Solving for p_rgh, Initial residual = 0.00259905, Final residual = 8.97698e-08, No Iterations 14
GAMG:  Solving for p_rgh, Initial residual = 8.98291e-08, Final residual = 8.98291e-08, No Iterations 0
time step continuity errors : sum local = 8.1487e-09, global = 2.08105e-10, cumulative = 7.03736e-09
GAMG:  Solving for p_rgh, Initial residual = 4.43096e-05, Final residual = 9.96816e-08, No Iterations 6
GAMG:  Solving for p_rgh, Initial residual = 9.96761e-08, Final residual = 9.96761e-08, No Iterations 0
time step continuity errors : sum local = 9.04267e-09, global = 9.74638e-10, cumulative = 8.012e-09
GAMG:  Solving for p_rgh, Initial residual = 1.32762e-06, Final residual = 5.00718e-08, No Iterations 2
GAMG:  Solving for p_rgh, Initial residual = 5.00718e-08, Final residual = 9.7654e-09, No Iterations 4
time step continuity errors : sum local = 8.85923e-10, global = 1.88656e-11, cumulative = 8.03086e-09
ExecutionTime = 5.38 s  ClockTime = 6 s

Courant Number mean: 0.00756028 max: 0.196251
Interface Courant Number mean: 0.000235202 max: 0.0918443
deltaT = 0.04375
Time = 0.78125

PIMPLE: iteration 1
smoothSolver:  Solving for alpha.water, Initial residual = 0.000130949, Final residual = 3.2681e-11, No Iterations 2
Phase-1 volume fraction = 0.791131  Min(alpha.water) = 0  Max(alpha.water) = 1
MULES: Correcting alpha.water
Phase-1 volume fraction = 0.791131  Min(alpha.water) = -1.76415e-09  Max(alpha.water) = 1
Relaxing time: 0 s
DILUPBiCGStab:  Solving for Ux, Initial residual = 0.00790379, Final residual = 3.23402e-10, No Iterations 2
DILUPBiCGStab:  Solving for Uz, Initial residual = 0.0169961, Final residual = 1.44976e-11, No Iterations 3
GAMG:  Solving for p_rgh, Initial residual = 0.0025965, Final residual = 8.17835e-08, No Iterations 14
GAMG:  Solving for p_rgh, Initial residual = 8.18003e-08, Final residual = 8.18003e-08, No Iterations 0
time step continuity errors : sum local = 7.41417e-09, global = 1.5509e-10, cumulative = 8.18595e-09
GAMG:  Solving for p_rgh, Initial residual = 4.52762e-05, Final residual = 9.74366e-08, No Iterations 6
GAMG:  Solving for p_rgh, Initial residual = 9.74312e-08, Final residual = 9.74312e-08, No Iterations 0
time step continuity errors : sum local = 8.83162e-09, global = 1.01092e-09, cumulative = 9.19687e-09
GAMG:  Solving for p_rgh, Initial residual = 1.31272e-06, Final residual = 4.83037e-08, No Iterations 2
GAMG:  Solving for p_rgh, Initial residual = 4.83036e-08, Final residual = 9.47984e-09, No Iterations 4
time step continuity errors : sum local = 8.59298e-10, global = 1.94493e-11, cumulative = 9.21632e-09
ExecutionTime = 5.58 s  ClockTime = 6 s

Courant Number mean: 0.00765254 max: 0.199667
Interface Courant Number mean: 0.000244084 max: 0.0906687
deltaT = 0.04375
Time = 0.825

PIMPLE: iteration 1
smoothSolver:  Solving for alpha.water, Initial residual = 0.000132503, Final residual = 4.27114e-11, No Iterations 2
Phase-1 volume fraction = 0.791059  Min(alpha.water) = 0  Max(alpha.water) = 1
MULES: Correcting alpha.water
Phase-1 volume fraction = 0.791059  Min(alpha.water) = -2.94534e-09  Max(alpha.water) = 1
Relaxing time: 0.01 s
DILUPBiCGStab:  Solving for Ux, Initial residual = 0.0078923, Final residual = 3.23612e-10, No Iterations 2
DILUPBiCGStab:  Solving for Uz, Initial residual = 0.0171054, Final residual = 1.50277e-11, No Iterations 3
GAMG:  Solving for p_rgh, Initial residual = 0.00259409, Final residual = 7.28396e-08, No Iterations 14
GAMG:  Solving for p_rgh, Initial residual = 7.28431e-08, Final residual = 7.28431e-08, No Iterations 0
time step continuity errors : sum local = 6.59938e-09, global = 4.0305e-11, cumulative = 9.25662e-09
GAMG:  Solving for p_rgh, Initial residual = 4.60555e-05, Final residual = 9.52669e-08, No Iterations 6
GAMG:  Solving for p_rgh, Initial residual = 9.52615e-08, Final residual = 9.52615e-08, No Iterations 0
time step continuity errors : sum local = 8.63114e-09, global = 1.05238e-09, cumulative = 1.0309e-08
GAMG:  Solving for p_rgh, Initial residual = 1.29679e-06, Final residual = 4.66174e-08, No Iterations 2
GAMG:  Solving for p_rgh, Initial residual = 4.66173e-08, Final residual = 9.19366e-09, No Iterations 4
time step continuity errors : sum local = 8.32989e-10, global = 2.07648e-11, cumulative = 1.03298e-08
ExecutionTime = 5.75 s  ClockTime = 6 s

Courant Number mean: 0.00774652 max: 0.203063
Interface Courant Number mean: 0.000245769 max: 0.0893861
deltaT = 0.04375
Time = 0.86875

PIMPLE: iteration 1
smoothSolver:  Solving for alpha.water, Initial residual = 0.00013441, Final residual = 5.23194e-11, No Iterations 2
Phase-1 volume fraction = 0.790988  Min(alpha.water) = 0  Max(alpha.water) = 1
MULES: Correcting alpha.water
Phase-1 volume fraction = 0.790988  Min(alpha.water) = -4.79436e-09  Max(alpha.water) = 1
Relaxing time: 0 s
DILUPBiCGStab:  Solving for Ux, Initial residual = 0.00785245, Final residual = 3.11861e-10, No Iterations 2
DILUPBiCGStab:  Solving for Uz, Initial residual = 0.0172143, Final residual = 1.56295e-11, No Iterations 3
GAMG:  Solving for p_rgh, Initial residual = 0.00259995, Final residual = 9.73571e-08, No Iterations 13
GAMG:  Solving for p_rgh, Initial residual = 9.73633e-08, Final residual = 9.73633e-08, No Iterations 0
time step continuity errors : sum local = 8.81675e-09, global = 1.70686e-11, cumulative = 1.03468e-08
GAMG:  Solving for p_rgh, Initial residual = 4.67884e-05, Final residual = 9.44037e-08, No Iterations 6
GAMG:  Solving for p_rgh, Initial residual = 9.43981e-08, Final residual = 9.43981e-08, No Iterations 0
time step continuity errors : sum local = 8.54897e-09, global = 1.1074e-09, cumulative = 1.14542e-08
GAMG:  Solving for p_rgh, Initial residual = 1.2887e-06, Final residual = 4.5173e-08, No Iterations 2
GAMG:  Solving for p_rgh, Initial residual = 4.5173e-08, Final residual = 8.8926e-09, No Iterations 4
time step continuity errors : sum local = 8.05341e-10, global = 2.05617e-11, cumulative = 1.14748e-08
ExecutionTime = 5.92 s  ClockTime = 6 s

Courant Number mean: 0.00784169 max: 0.206422
Interface Courant Number mean: 0.000247404 max: 0.0879858
deltaT = 0.04375
Time = 0.9125

PIMPLE: iteration 1
smoothSolver:  Solving for alpha.water, Initial residual = 0.000136283, Final residual = 5.95e-11, No Iterations 2
Phase-1 volume fraction = 0.790918  Min(alpha.water) = 0  Max(alpha.water) = 1
MULES: Correcting alpha.water
Phase-1 volume fraction = 0.790918  Min(alpha.water) = -7.62848e-09  Max(alpha.water) = 1
Relaxing time: 0.01 s
DILUPBiCGStab:  Solving for Ux, Initial residual = 0.0077504, Final residual = 2.97034e-10, No Iterations 2
DILUPBiCGStab:  Solving for Uz, Initial residual = 0.0173575, Final residual = 1.6149e-11, No Iterations 3
GAMG:  Solving for p_rgh, Initial residual = 0.00259515, Final residual = 8.62269e-08, No Iterations 13
GAMG:  Solving for p_rgh, Initial residual = 8.62315e-08, Final residual = 8.62315e-08, No Iterations 0
time step continuity errors : sum local = 7.80505e-09, global = 2.37591e-11, cumulative = 1.14986e-08
GAMG:  Solving for p_rgh, Initial residual = 4.73841e-05, Final residual = 9.16602e-08, No Iterations 6
GAMG:  Solving for p_rgh, Initial residual = 9.16547e-08, Final residual = 9.16547e-08, No Iterations 0
time step continuity errors : sum local = 8.29665e-09, global = 1.08971e-09, cumulative = 1.25883e-08
GAMG:  Solving for p_rgh, Initial residual = 1.29643e-06, Final residual = 4.32397e-08, No Iterations 2
GAMG:  Solving for p_rgh, Initial residual = 4.32397e-08, Final residual = 8.53197e-09, No Iterations 4
time step continuity errors : sum local = 7.7232e-10, global = 1.98305e-11, cumulative = 1.26081e-08
ExecutionTime = 6.08 s  ClockTime = 6 s

Courant Number mean: 0.00793837 max: 0.209755
Interface Courant Number mean: 0.000241438 max: 0.0869193
deltaT = 0.04375
Time = 0.95625

PIMPLE: iteration 1
smoothSolver:  Solving for alpha.water, Initial residual = 0.000138104, Final residual = 6.17662e-11, No Iterations 2
Phase-1 volume fraction = 0.790848  Min(alpha.water) = 0  Max(alpha.water) = 1
MULES: Correcting alpha.water
Phase-1 volume fraction = 0.790848  Min(alpha.water) = -1.18562e-08  Max(alpha.water) = 1
Relaxing time: 0 s
DILUPBiCGStab:  Solving for Ux, Initial residual = 0.00764372, Final residual = 2.86285e-10, No Iterations 2
DILUPBiCGStab:  Solving for Uz, Initial residual = 0.0174794, Final residual = 1.69508e-11, No Iterations 3
GAMG:  Solving for p_rgh, Initial residual = 0.00259073, Final residual = 7.48381e-08, No Iterations 13
GAMG:  Solving for p_rgh, Initial residual = 7.48374e-08, Final residual = 7.48374e-08, No Iterations 0
time step continuity errors : sum local = 6.77181e-09, global = -5.56254e-12, cumulative = 1.26025e-08
GAMG:  Solving for p_rgh, Initial residual = 4.75093e-05, Final residual = 9.54509e-08, No Iterations 6
GAMG:  Solving for p_rgh, Initial residual = 9.54454e-08, Final residual = 9.54454e-08, No Iterations 0
time step continuity errors : sum local = 8.63731e-09, global = 9.72222e-10, cumulative = 1.35748e-08
GAMG:  Solving for p_rgh, Initial residual = 1.32355e-06, Final residual = 4.49508e-08, No Iterations 2
GAMG:  Solving for p_rgh, Initial residual = 4.49508e-08, Final residual = 8.78905e-09, No Iterations 4
time step continuity errors : sum local = 7.95363e-10, global = 1.41711e-11, cumulative = 1.35889e-08
ExecutionTime = 6.25 s  ClockTime = 7 s

Courant Number mean: 0.00803616 max: 0.213085
Interface Courant Number mean: 0.000239848 max: 0.0863847
deltaT = 0.04375
Time = 1

PIMPLE: iteration 1
smoothSolver:  Solving for alpha.water, Initial residual = 0.000139879, Final residual = 5.7013e-11, No Iterations 2
Phase-1 volume fraction = 0.790778  Min(alpha.water) = 0  Max(alpha.water) = 1
MULES: Correcting alpha.water
Phase-1 volume fraction = 0.790778  Min(alpha.water) = -1.80689e-08  Max(alpha.water) = 1
Relaxing time: 0.01 s
DILUPBiCGStab:  Solving for Ux, Initial residual = 0.00753323, Final residual = 2.75455e-10, No Iterations 2
DILUPBiCGStab:  Solving for Uz, Initial residual = 0.0175849, Final residual = 1.70482e-11, No Iterations 3
GAMG:  Solving for p_rgh, Initial residual = 0.00259605, Final residual = 7.09228e-08, No Iterations 13
GAMG:  Solving for p_rgh, Initial residual = 7.09173e-08, Final residual = 7.09173e-08, No Iterations 0
time step continuity errors : sum local = 6.41584e-09, global = 1.8433e-12, cumulative = 1.35908e-08
GAMG:  Solving for p_rgh, Initial residual = 4.80613e-05, Final residual = 9.36259e-08, No Iterations 6
GAMG:  Solving for p_rgh, Initial residual = 9.36202e-08, Final residual = 9.36202e-08, No Iterations 0
time step continuity errors : sum local = 8.4705e-09, global = 1.05954e-09, cumulative = 1.46503e-08
GAMG:  Solving for p_rgh, Initial residual = 1.34023e-06, Final residual = 4.24789e-08, No Iterations 2
GAMG:  Solving for p_rgh, Initial residual = 4.24789e-08, Final residual = 8.39791e-09, No Iterations 4
time step continuity errors : sum local = 7.59821e-10, global = 1.61986e-11, cumulative = 1.46665e-08
ExecutionTime = 6.42 s  ClockTime = 7 s

Courant Number mean: 0.00813547 max: 0.216371
Interface Courant Number mean: 0.000231683 max: 0.0872071
deltaT = 0.0416667
Time = 1.04167

PIMPLE: iteration 1
smoothSolver:  Solving for alpha.water, Initial residual = 0.000134927, Final residual = 4.25077e-11, No Iterations 2
Phase-1 volume fraction = 0.790713  Min(alpha.water) = 0  Max(alpha.water) = 1
MULES: Correcting alpha.water
Phase-1 volume fraction = 0.790713  Min(alpha.water) = -2.16979e-08  Max(alpha.water) = 1
Relaxing time: 0 s
DILUPBiCGStab:  Solving for Ux, Initial residual = 0.00707217, Final residual = 2.08952e-10, No Iterations 2
DILUPBiCGStab:  Solving for Uz, Initial residual = 0.0165699, Final residual = 9.64558e-10, No Iterations 2
GAMG:  Solving for p_rgh, Initial residual = 0.00250024, Final residual = 9.67942e-08, No Iterations 12
GAMG:  Solving for p_rgh, Initial residual = 9.67936e-08, Final residual = 9.67936e-08, No Iterations 0
time step continuity errors : sum local = 7.94469e-09, global = 1.92017e-12, cumulative = 1.46684e-08
GAMG:  Solving for p_rgh, Initial residual = 4.44306e-05, Final residual = 8.52418e-08, No Iterations 6
GAMG:  Solving for p_rgh, Initial residual = 8.52371e-08, Final residual = 8.52371e-08, No Iterations 0
time step continuity errors : sum local = 6.99672e-09, global = 8.9305e-10, cumulative = 1.55615e-08
GAMG:  Solving for p_rgh, Initial residual = 1.17806e-06, Final residual = 3.76559e-08, No Iterations 2
GAMG:  Solving for p_rgh, Initial residual = 3.76558e-08, Final residual = 7.3566e-09, No Iterations 4
time step continuity errors : sum local = 6.0387e-10, global = 1.15995e-11, cumulative = 1.55731e-08
ExecutionTime = 6.59 s  ClockTime = 7 s

Courant Number mean: 0.00783888 max: 0.208997
Interface Courant Number mean: 0.000216342 max: 0.0833916
deltaT = 0.0416667
Time = 1.08333

PIMPLE: iteration 1
smoothSolver:  Solving for alpha.water, Initial residual = 0.000136781, Final residual = 3.46502e-11, No Iterations 2
Phase-1 volume fraction = 0.790648  Min(alpha.water) = 0  Max(alpha.water) = 1
MULES: Correcting alpha.water
Phase-1 volume fraction = 0.790648  Min(alpha.water) = -3.13827e-08  Max(alpha.water) = 1
Relaxing time: 0 s
DILUPBiCGStab:  Solving for Ux, Initial residual = 0.00701875, Final residual = 2.09439e-10, No Iterations 2
DILUPBiCGStab:  Solving for Uz, Initial residual = 0.0167181, Final residual = 9.85852e-10, No Iterations 2
GAMG:  Solving for p_rgh, Initial residual = 0.00257947, Final residual = 8.78699e-08, No Iterations 17
GAMG:  Solving for p_rgh, Initial residual = 8.70034e-08, Final residual = 8.70034e-08, No Iterations 0
time step continuity errors : sum local = 7.20966e-09, global = 2.36971e-11, cumulative = 1.55968e-08
GAMG:  Solving for p_rgh, Initial residual = 5.45244e-05, Final residual = 6.81655e-08, No Iterations 8
GAMG:  Solving for p_rgh, Initial residual = 6.81681e-08, Final residual = 6.81681e-08, No Iterations 0
time step continuity errors : sum local = 5.6488e-09, global = -8.91728e-11, cumulative = 1.55076e-08
GAMG:  Solving for p_rgh, Initial residual = 1.40762e-06, Final residual = 3.3195e-08, No Iterations 2
GAMG:  Solving for p_rgh, Initial residual = 3.3195e-08, Final residual = 9.33008e-09, No Iterations 3
time step continuity errors : sum local = 7.73144e-10, global = -8.83472e-12, cumulative = 1.54988e-08
ExecutionTime = 6.77 s  ClockTime = 7 s

Courant Number mean: 0.00795085 max: 0.205777
Interface Courant Number mean: 0.000227381 max: 0.0795315
deltaT = 0.0416667
Time = 1.125

PIMPLE: iteration 1
smoothSolver:  Solving for alpha.water, Initial residual = 0.00014202, Final residual = 3.44012e-11, No Iterations 2
Phase-1 volume fraction = 0.790583  Min(alpha.water) = 0  Max(alpha.water) = 1
MULES: Correcting alpha.water
Phase-1 volume fraction = 0.790583  Min(alpha.water) = -9.24315e-09  Max(alpha.water) = 1
Relaxing time: 0 s
DILUPBiCGStab:  Solving for Ux, Initial residual = 0.0104291, Final residual = 2.82248e-10, No Iterations 2
DILUPBiCGStab:  Solving for Uz, Initial residual = 0.0231111, Final residual = 1.79113e-11, No Iterations 3
GAMG:  Solving for p_rgh, Initial residual = 0.00267085, Final residual = 8.59936e-08, No Iterations 17
GAMG:  Solving for p_rgh, Initial residual = 8.68562e-08, Final residual = 8.68562e-08, No Iterations 0
time step continuity errors : sum local = 7.12242e-09, global = -2.31224e-11, cumulative = 1.54756e-08
GAMG:  Solving for p_rgh, Initial residual = 5.46134e-05, Final residual = 9.09429e-08, No Iterations 7
GAMG:  Solving for p_rgh, Initial residual = 9.09275e-08, Final residual = 9.09275e-08, No Iterations 0
time step continuity errors : sum local = 7.45773e-09, global = 3.84477e-10, cumulative = 1.58601e-08
GAMG:  Solving for p_rgh, Initial residual = 1.47954e-06, Final residual = 4.44725e-08, No Iterations 2
GAMG:  Solving for p_rgh, Initial residual = 4.44725e-08, Final residual = 7.0218e-09, No Iterations 4
time step continuity errors : sum local = 5.75917e-10, global = 9.61429e-12, cumulative = 1.58697e-08
ExecutionTime = 6.95 s  ClockTime = 7 s

Courant Number mean: 0.00804236 max: 0.208584
Interface Courant Number mean: 0.000233696 max: 0.0785918
deltaT = 0.0416667
Time = 1.16667

PIMPLE: iteration 1
smoothSolver:  Solving for alpha.water, Initial residual = 0.000143496, Final residual = 3.19732e-11, No Iterations 2
Phase-1 volume fraction = 0.790519  Min(alpha.water) = 0  Max(alpha.water) = 1
MULES: Correcting alpha.water
Phase-1 volume fraction = 0.790519  Min(alpha.water) = -1.34836e-08  Max(alpha.water) = 1
Relaxing time: 0 s
DILUPBiCGStab:  Solving for Ux, Initial residual = 0.0066789, Final residual = 1.79789e-10, No Iterations 2
DILUPBiCGStab:  Solving for Uz, Initial residual = 0.0167504, Final residual = 9.66644e-10, No Iterations 2
GAMG:  Solving for p_rgh, Initial residual = 0.00263007, Final residual = 6.74884e-08, No Iterations 13
GAMG:  Solving for p_rgh, Initial residual = 6.75004e-08, Final residual = 6.75004e-08, No Iterations 0
time step continuity errors : sum local = 5.53154e-09, global = -9.83973e-11, cumulative = 1.57713e-08
GAMG:  Solving for p_rgh, Initial residual = 4.81828e-05, Final residual = 8.601e-08, No Iterations 6
GAMG:  Solving for p_rgh, Initial residual = 8.6004e-08, Final residual = 8.6004e-08, No Iterations 0
time step continuity errors : sum local = 7.04857e-09, global = 1.19462e-09, cumulative = 1.6966e-08
GAMG:  Solving for p_rgh, Initial residual = 1.33623e-06, Final residual = 3.50079e-08, No Iterations 2
GAMG:  Solving for p_rgh, Initial residual = 3.50078e-08, Final residual = 6.16715e-09, No Iterations 4
time step continuity errors : sum local = 5.05438e-10, global = 2.49115e-11, cumulative = 1.69909e-08
ExecutionTime = 7.12 s  ClockTime = 7 s

Courant Number mean: 0.00813377 max: 0.211345
Interface Courant Number mean: 0.00023525 max: 0.0795628
deltaT = 0.0416667
Time = 1.20833

PIMPLE: iteration 1
smoothSolver:  Solving for alpha.water, Initial residual = 0.000145191, Final residual = 4.10306e-11, No Iterations 2
Phase-1 volume fraction = 0.790455  Min(alpha.water) = 0  Max(alpha.water) = 1
MULES: Correcting alpha.water
Phase-1 volume fraction = 0.790455  Min(alpha.water) = -1.99993e-08  Max(alpha.water) = 1
Relaxing time: 0.01 s
DILUPBiCGStab:  Solving for Ux, Initial residual = 0.00659896, Final residual = 1.80049e-10, No Iterations 2
DILUPBiCGStab:  Solving for Uz, Initial residual = 0.0167645, Final residual = 9.67952e-10, No Iterations 2
GAMG:  Solving for p_rgh, Initial residual = 0.00269343, Final residual = 7.47797e-08, No Iterations 13
GAMG:  Solving for p_rgh, Initial residual = 7.4798e-08, Final residual = 7.4798e-08, No Iterations 0
time step continuity errors : sum local = 6.12513e-09, global = -1.21615e-10, cumulative = 1.68693e-08
GAMG:  Solving for p_rgh, Initial residual = 4.87014e-05, Final residual = 8.51729e-08, No Iterations 6
GAMG:  Solving for p_rgh, Initial residual = 8.51671e-08, Final residual = 8.51671e-08, No Iterations 0
time step continuity errors : sum local = 6.97492e-09, global = 1.16525e-09, cumulative = 1.80345e-08
GAMG:  Solving for p_rgh, Initial residual = 1.36057e-06, Final residual = 3.47196e-08, No Iterations 2
GAMG:  Solving for p_rgh, Initial residual = 3.47195e-08, Final residual = 6.18291e-09, No Iterations 4
time step continuity errors : sum local = 5.06362e-10, global = 2.12973e-11, cumulative = 1.80558e-08
ExecutionTime = 7.28 s  ClockTime = 8 s

Courant Number mean: 0.0082253 max: 0.21406
Interface Courant Number mean: 0.000253804 max: 0.0842558
deltaT = 0.0416667
Time = 1.25

PIMPLE: iteration 1
smoothSolver:  Solving for alpha.water, Initial residual = 0.000147149, Final residual = 5.17518e-11, No Iterations 2
Phase-1 volume fraction = 0.790392  Min(alpha.water) = 0  Max(alpha.water) = 1
MULES: Correcting alpha.water
Phase-1 volume fraction = 0.790392  Min(alpha.water) = -2.91971e-08  Max(alpha.water) = 1
Relaxing time: 0 s
DILUPBiCGStab:  Solving for Ux, Initial residual = 0.00652146, Final residual = 1.82392e-10, No Iterations 2
DILUPBiCGStab:  Solving for Uz, Initial residual = 0.0167982, Final residual = 9.7784e-10, No Iterations 2
GAMG:  Solving for p_rgh, Initial residual = 0.00275705, Final residual = 8.3509e-08, No Iterations 13
GAMG:  Solving for p_rgh, Initial residual = 8.3528e-08, Final residual = 8.3528e-08, No Iterations 0
time step continuity errors : sum local = 6.83529e-09, global = -1.59569e-10, cumulative = 1.78962e-08
GAMG:  Solving for p_rgh, Initial residual = 4.94524e-05, Final residual = 8.81293e-08, No Iterations 6
GAMG:  Solving for p_rgh, Initial residual = 8.81234e-08, Final residual = 8.81234e-08, No Iterations 0
time step continuity errors : sum local = 7.21203e-09, global = 1.18285e-09, cumulative = 1.90791e-08
GAMG:  Solving for p_rgh, Initial residual = 1.39405e-06, Final residual = 3.74826e-08, No Iterations 2
GAMG:  Solving for p_rgh, Initial residual = 3.74825e-08, Final residual = 6.55796e-09, No Iterations 4
time step continuity errors : sum local = 5.36705e-10, global = 2.11662e-11, cumulative = 1.91002e-08
ExecutionTime = 7.45 s  ClockTime = 8 s

Courant Number mean: 0.0083175 max: 0.216727
Interface Courant Number mean: 0.00026347 max: 0.0833492
deltaT = 0.0357143
Time = 1.28571

PIMPLE: iteration 1
smoothSolver:  Solving for alpha.water, Initial residual = 0.000127881, Final residual = 3.4467e-11, No Iterations 2
Phase-1 volume fraction = 0.790338  Min(alpha.water) = 0  Max(alpha.water) = 1
MULES: Correcting alpha.water
Phase-1 volume fraction = 0.790338  Min(alpha.water) = -2.04565e-08  Max(alpha.water) = 1
Relaxing time: 0.01 s
DILUPBiCGStab:  Solving for Ux, Initial residual = 0.0055277, Final residual = 8.54084e-11, No Iterations 2
DILUPBiCGStab:  Solving for Uz, Initial residual = 0.0136655, Final residual = 4.12578e-10, No Iterations 2
GAMG:  Solving for p_rgh, Initial residual = 0.00240869, Final residual = 9.43107e-08, No Iterations 13
GAMG:  Solving for p_rgh, Initial residual = 9.43021e-08, Final residual = 9.43021e-08, No Iterations 0
time step continuity errors : sum local = 5.67892e-09, global = -1.44156e-10, cumulative = 1.89561e-08
GAMG:  Solving for p_rgh, Initial residual = 3.69602e-05, Final residual = 6.59604e-08, No Iterations 6
GAMG:  Solving for p_rgh, Initial residual = 6.59575e-08, Final residual = 6.59575e-08, No Iterations 0
time step continuity errors : sum local = 3.97226e-09, global = 6.55008e-10, cumulative = 1.96111e-08
GAMG:  Solving for p_rgh, Initial residual = 9.03552e-07, Final residual = 8.04846e-08, No Iterations 1
GAMG:  Solving for p_rgh, Initial residual = 8.04846e-08, Final residual = 8.26876e-09, No Iterations 4
time step continuity errors : sum local = 4.97982e-10, global = 2.61527e-11, cumulative = 1.96373e-08
ExecutionTime = 7.61 s  ClockTime = 8 s

Courant Number mean: 0.00719821 max: 0.187552
Interface Courant Number mean: 0.000224706 max: 0.0712223
deltaT = 0.0357143
Time = 1.32143

PIMPLE: iteration 1
smoothSolver:  Solving for alpha.water, Initial residual = 0.000129347, Final residual = 3.9418e-11, No Iterations 2
Phase-1 volume fraction = 0.790285  Min(alpha.water) = 0  Max(alpha.water) = 1
MULES: Correcting alpha.water
Phase-1 volume fraction = 0.790285  Min(alpha.water) = -2.63821e-08  Max(alpha.water) = 1
Relaxing time: 0 s
DILUPBiCGStab:  Solving for Ux, Initial residual = 0.00553475, Final residual = 8.90168e-11, No Iterations 2
DILUPBiCGStab:  Solving for Uz, Initial residual = 0.0136141, Final residual = 4.25945e-10, No Iterations 2
GAMG:  Solving for p_rgh, Initial residual = 0.00241686, Final residual = 7.52495e-08, No Iterations 13
GAMG:  Solving for p_rgh, Initial residual = 7.52935e-08, Final residual = 7.52935e-08, No Iterations 0
time step continuity errors : sum local = 4.52943e-09, global = -6.9121e-11, cumulative = 1.95681e-08
GAMG:  Solving for p_rgh, Initial residual = 3.72708e-05, Final residual = 6.84884e-08, No Iterations 6
GAMG:  Solving for p_rgh, Initial residual = 6.84848e-08, Final residual = 6.84848e-08, No Iterations 0
time step continuity errors : sum local = 4.12014e-09, global = 6.71907e-10, cumulative = 2.024e-08
GAMG:  Solving for p_rgh, Initial residual = 9.18739e-07, Final residual = 8.43281e-08, No Iterations 1
GAMG:  Solving for p_rgh, Initial residual = 8.43281e-08, Final residual = 8.81871e-09, No Iterations 4
time step continuity errors : sum local = 5.30547e-10, global = 3.10039e-11, cumulative = 2.0271e-08
ExecutionTime = 7.79 s  ClockTime = 8 s

Courant Number mean: 0.00726664 max: 0.189438
Interface Courant Number mean: 0.000226007 max: 0.0720573
deltaT = 0.0357143
Time = 1.35714

PIMPLE: iteration 1
smoothSolver:  Solving for alpha.water, Initial residual = 0.000130815, Final residual = 4.3705e-11, No Iterations 2
Phase-1 volume fraction = 0.790232  Min(alpha.water) = 0  Max(alpha.water) = 1
MULES: Correcting alpha.water
Phase-1 volume fraction = 0.790232  Min(alpha.water) = -9.24977e-10  Max(alpha.water) = 1
Relaxing time: 0 s
DILUPBiCGStab:  Solving for Ux, Initial residual = 0.00546341, Final residual = 9.0581e-11, No Iterations 2
DILUPBiCGStab:  Solving for Uz, Initial residual = 0.0136671, Final residual = 4.34035e-10, No Iterations 2
GAMG:  Solving for p_rgh, Initial residual = 0.00243144, Final residual = 8.01139e-08, No Iterations 13
GAMG:  Solving for p_rgh, Initial residual = 8.01351e-08, Final residual = 8.01351e-08, No Iterations 0
time step continuity errors : sum local = 4.81718e-09, global = -1.31934e-10, cumulative = 2.01391e-08
GAMG:  Solving for p_rgh, Initial residual = 3.79966e-05, Final residual = 7.08668e-08, No Iterations 6
GAMG:  Solving for p_rgh, Initial residual = 7.08633e-08, Final residual = 7.08633e-08, No Iterations 0
time step continuity errors : sum local = 4.26012e-09, global = 6.74595e-10, cumulative = 2.08137e-08
GAMG:  Solving for p_rgh, Initial residual = 9.34604e-07, Final residual = 8.81822e-08, No Iterations 1
GAMG:  Solving for p_rgh, Initial residual = 8.81822e-08, Final residual = 9.40036e-09, No Iterations 4
time step continuity errors : sum local = 5.65126e-10, global = 2.50534e-11, cumulative = 2.08388e-08
ExecutionTime = 7.95 s  ClockTime = 8 s

Courant Number mean: 0.0073356 max: 0.191299
Interface Courant Number mean: 0.000218899 max: 0.0729877
deltaT = 0.0357143
Time = 1.39286

PIMPLE: iteration 1
smoothSolver:  Solving for alpha.water, Initial residual = 0.000132264, Final residual = 4.68812e-11, No Iterations 2
Phase-1 volume fraction = 0.790179  Min(alpha.water) = 0  Max(alpha.water) = 1
MULES: Correcting alpha.water
[...]
MULES: Correcting alpha.water
Phase-1 volume fraction = 0.788523  Min(alpha.water) = -1.06467e-10  Max(alpha.water) = 1.00069
Relaxing time: 0 s
DILUPBiCGStab:  Solving for Ux, Initial residual = 0.00478696, Final residual = 9.99092e-10, No Iterations 2
DILUPBiCGStab:  Solving for Uz, Initial residual = 0.0121761, Final residual = 6.04479e-11, No Iterations 2
GAMG:  Solving for p_rgh, Initial residual = 0.00480047, Final residual = 6.75147e-08, No Iterations 13
GAMG:  Solving for p_rgh, Initial residual = 6.75148e-08, Final residual = 6.75148e-08, No Iterations 0
time step continuity errors : sum local = 3.0533e-09, global = -1.27624e-11, cumulative = 3.39958e-07
GAMG:  Solving for p_rgh, Initial residual = 7.696e-05, Final residual = 8.5008e-08, No Iterations 6
GAMG:  Solving for p_rgh, Initial residual = 8.49986e-08, Final residual = 8.49986e-08, No Iterations 0
time step continuity errors : sum local = 3.84458e-09, global = 5.91684e-10, cumulative = 3.40549e-07
GAMG:  Solving for p_rgh, Initial residual = 1.53526e-06, Final residual = 7.17284e-08, No Iterations 1
GAMG:  Solving for p_rgh, Initial residual = 7.17284e-08, Final residual = 8.77521e-09, No Iterations 4
time step continuity errors : sum local = 3.96913e-10, global = 1.5672e-11, cumulative = 3.40565e-07
ExecutionTime = 103.49 s  ClockTime = 104 s

Courant Number mean: 0.0164876 max: 0.196054
Interface Courant Number mean: 0.000694106 max: 0.0581264
deltaT = 0.0333333
Time = 19.6667

PIMPLE: iteration 1
smoothSolver:  Solving for alpha.water, Initial residual = 0.000330274, Final residual = 2.61413e-11, No Iterations 2
Phase-1 volume fraction = 0.788539  Min(alpha.water) = 0  Max(alpha.water) = 1.00069
MULES: Correcting alpha.water
Phase-1 volume fraction = 0.788539  Min(alpha.water) = -1.10664e-10  Max(alpha.water) = 1.00069
Relaxing time: 0 s
DILUPBiCGStab:  Solving for Ux, Initial residual = 0.00479802, Final residual = 9.99143e-10, No Iterations 2
DILUPBiCGStab:  Solving for Uz, Initial residual = 0.0121923, Final residual = 6.09568e-11, No Iterations 2
GAMG:  Solving for p_rgh, Initial residual = 0.00476853, Final residual = 6.5341e-08, No Iterations 13
GAMG:  Solving for p_rgh, Initial residual = 6.53454e-08, Final residual = 6.53454e-08, No Iterations 0
time step continuity errors : sum local = 2.95511e-09, global = -1.18178e-11, cumulative = 3.40553e-07
GAMG:  Solving for p_rgh, Initial residual = 7.66038e-05, Final residual = 8.41695e-08, No Iterations 6
GAMG:  Solving for p_rgh, Initial residual = 8.41602e-08, Final residual = 8.41602e-08, No Iterations 0
time step continuity errors : sum local = 3.80655e-09, global = 5.82503e-10, cumulative = 3.41136e-07
GAMG:  Solving for p_rgh, Initial residual = 1.52353e-06, Final residual = 7.16293e-08, No Iterations 1
GAMG:  Solving for p_rgh, Initial residual = 7.16293e-08, Final residual = 8.72599e-09, No Iterations 4
time step continuity errors : sum local = 3.94676e-10, global = 1.43794e-11, cumulative = 3.4115e-07
ExecutionTime = 103.66 s  ClockTime = 104 s

Courant Number mean: 0.0164827 max: 0.194844
Interface Courant Number mean: 0.000694506 max: 0.0584304
deltaT = 0.0333333
Time = 19.7

PIMPLE: iteration 1
smoothSolver:  Solving for alpha.water, Initial residual = 0.000330604, Final residual = 2.60095e-11, No Iterations 2
Phase-1 volume fraction = 0.788554  Min(alpha.water) = 0  Max(alpha.water) = 1.00069
MULES: Correcting alpha.water
Phase-1 volume fraction = 0.788554  Min(alpha.water) = -1.14913e-10  Max(alpha.water) = 1.00069
Relaxing time: 0 s
DILUPBiCGStab:  Solving for Ux, Initial residual = 0.00480869, Final residual = 1.75558e-11, No Iterations 2
DILUPBiCGStab:  Solving for Uz, Initial residual = 0.0122021, Final residual = 6.15137e-11, No Iterations 2
GAMG:  Solving for p_rgh, Initial residual = 0.0047591, Final residual = 6.52009e-08, No Iterations 13
GAMG:  Solving for p_rgh, Initial residual = 6.52046e-08, Final residual = 6.52046e-08, No Iterations 0
time step continuity errors : sum local = 2.94895e-09, global = -1.04152e-11, cumulative = 3.4114e-07
GAMG:  Solving for p_rgh, Initial residual = 7.65887e-05, Final residual = 8.58286e-08, No Iterations 6
GAMG:  Solving for p_rgh, Initial residual = 8.5819e-08, Final residual = 8.5819e-08, No Iterations 0
time step continuity errors : sum local = 3.88187e-09, global = 5.96777e-10, cumulative = 3.41736e-07
GAMG:  Solving for p_rgh, Initial residual = 1.51918e-06, Final residual = 7.13435e-08, No Iterations 1
GAMG:  Solving for p_rgh, Initial residual = 7.13434e-08, Final residual = 8.76023e-09, No Iterations 4
time step continuity errors : sum local = 3.96253e-10, global = 1.37701e-11, cumulative = 3.4175e-07
ExecutionTime = 103.83 s  ClockTime = 104 s

Courant Number mean: 0.0164786 max: 0.193605
Interface Courant Number mean: 0.000704338 max: 0.0586878
deltaT = 0.0333333
Time = 19.7333

PIMPLE: iteration 1
smoothSolver:  Solving for alpha.water, Initial residual = 0.000330857, Final residual = 2.58767e-11, No Iterations 2
Phase-1 volume fraction = 0.78857  Min(alpha.water) = 0  Max(alpha.water) = 1.00069
MULES: Correcting alpha.water
Phase-1 volume fraction = 0.78857  Min(alpha.water) = -4.75785e-12  Max(alpha.water) = 1.00069
Relaxing time: 0.01 s
DILUPBiCGStab:  Solving for Ux, Initial residual = 0.00481948, Final residual = 1.75663e-11, No Iterations 2
DILUPBiCGStab:  Solving for Uz, Initial residual = 0.0122038, Final residual = 6.18504e-11, No Iterations 2
GAMG:  Solving for p_rgh, Initial residual = 0.00476475, Final residual = 6.57975e-08, No Iterations 13
GAMG:  Solving for p_rgh, Initial residual = 6.58127e-08, Final residual = 6.58127e-08, No Iterations 0
time step continuity errors : sum local = 2.97556e-09, global = -9.14294e-12, cumulative = 3.41741e-07
GAMG:  Solving for p_rgh, Initial residual = 7.67442e-05, Final residual = 8.36607e-08, No Iterations 6
GAMG:  Solving for p_rgh, Initial residual = 8.36514e-08, Final residual = 8.36514e-08, No Iterations 0
time step continuity errors : sum local = 3.78268e-09, global = 5.82302e-10, cumulative = 3.42323e-07
GAMG:  Solving for p_rgh, Initial residual = 1.52541e-06, Final residual = 6.95779e-08, No Iterations 1
GAMG:  Solving for p_rgh, Initial residual = 6.95778e-08, Final residual = 8.43227e-09, No Iterations 4
time step continuity errors : sum local = 3.81303e-10, global = 1.44012e-11, cumulative = 3.42338e-07
ExecutionTime = 104 s  ClockTime = 104 s

Courant Number mean: 0.0164805 max: 0.192337
Interface Courant Number mean: 0.000709489 max: 0.0589711
deltaT = 0.0333333
Time = 19.7667

PIMPLE: iteration 1
smoothSolver:  Solving for alpha.water, Initial residual = 0.000331224, Final residual = 2.57404e-11, No Iterations 2
Phase-1 volume fraction = 0.788587  Min(alpha.water) = 0  Max(alpha.water) = 1.00069
MULES: Correcting alpha.water
Phase-1 volume fraction = 0.788587  Min(alpha.water) = -4.95548e-12  Max(alpha.water) = 1.00069
Relaxing time: 0 s
DILUPBiCGStab:  Solving for Ux, Initial residual = 0.00482926, Final residual = 1.75708e-11, No Iterations 2
DILUPBiCGStab:  Solving for Uz, Initial residual = 0.0122071, Final residual = 6.2825e-11, No Iterations 2
GAMG:  Solving for p_rgh, Initial residual = 0.00478164, Final residual = 6.70461e-08, No Iterations 13
GAMG:  Solving for p_rgh, Initial residual = 6.7065e-08, Final residual = 6.7065e-08, No Iterations 0
time step continuity errors : sum local = 3.03172e-09, global = -8.02949e-12, cumulative = 3.4233e-07
GAMG:  Solving for p_rgh, Initial residual = 7.66425e-05, Final residual = 8.36146e-08, No Iterations 6
GAMG:  Solving for p_rgh, Initial residual = 8.36054e-08, Final residual = 8.36054e-08, No Iterations 0
time step continuity errors : sum local = 3.78002e-09, global = 5.85394e-10, cumulative = 3.42915e-07
GAMG:  Solving for p_rgh, Initial residual = 1.51596e-06, Final residual = 6.90544e-08, No Iterations 1
GAMG:  Solving for p_rgh, Initial residual = 6.90544e-08, Final residual = 8.57355e-09, No Iterations 4
time step continuity errors : sum local = 3.87633e-10, global = 1.43336e-11, cumulative = 3.42929e-07
ExecutionTime = 104.17 s  ClockTime = 105 s

Courant Number mean: 0.0164823 max: 0.191044
Interface Courant Number mean: 0.000702939 max: 0.0591867
deltaT = 0.0333333
Time = 19.8

PIMPLE: iteration 1
smoothSolver:  Solving for alpha.water, Initial residual = 0.000331601, Final residual = 2.5597e-11, No Iterations 2
Phase-1 volume fraction = 0.788603  Min(alpha.water) = 0  Max(alpha.water) = 1.00069
MULES: Correcting alpha.water
Phase-1 volume fraction = 0.788603  Min(alpha.water) = -5.31313e-12  Max(alpha.water) = 1.00069
Relaxing time: 0 s
DILUPBiCGStab:  Solving for Ux, Initial residual = 0.00483827, Final residual = 1.75644e-11, No Iterations 2
DILUPBiCGStab:  Solving for Uz, Initial residual = 0.0122206, Final residual = 6.31387e-11, No Iterations 2
GAMG:  Solving for p_rgh, Initial residual = 0.00480412, Final residual = 6.91238e-08, No Iterations 13
GAMG:  Solving for p_rgh, Initial residual = 6.9151e-08, Final residual = 6.9151e-08, No Iterations 0
time step continuity errors : sum local = 3.12361e-09, global = -6.78043e-12, cumulative = 3.42923e-07
GAMG:  Solving for p_rgh, Initial residual = 7.64108e-05, Final residual = 8.58658e-08, No Iterations 6
GAMG:  Solving for p_rgh, Initial residual = 8.58565e-08, Final residual = 8.58565e-08, No Iterations 0
time step continuity errors : sum local = 3.8788e-09, global = 6.04436e-10, cumulative = 3.43527e-07
GAMG:  Solving for p_rgh, Initial residual = 1.50838e-06, Final residual = 6.9498e-08, No Iterations 1
GAMG:  Solving for p_rgh, Initial residual = 6.94979e-08, Final residual = 8.83116e-09, No Iterations 4
time step continuity errors : sum local = 3.98972e-10, global = 1.55528e-11, cumulative = 3.43543e-07
ExecutionTime = 104.35 s  ClockTime = 105 s

Courant Number mean: 0.0164822 max: 0.18972
Interface Courant Number mean: 0.000716673 max: 0.059367
deltaT = 0.0333333
Time = 19.8333

PIMPLE: iteration 1
smoothSolver:  Solving for alpha.water, Initial residual = 0.000331937, Final residual = 2.54387e-11, No Iterations 2
Phase-1 volume fraction = 0.788619  Min(alpha.water) = 0  Max(alpha.water) = 1.00069
MULES: Correcting alpha.water
Phase-1 volume fraction = 0.788619  Min(alpha.water) = -5.82752e-12  Max(alpha.water) = 1.00069
Relaxing time: 0 s
DILUPBiCGStab:  Solving for Ux, Initial residual = 0.00484788, Final residual = 1.76164e-11, No Iterations 2
DILUPBiCGStab:  Solving for Uz, Initial residual = 0.0122333, Final residual = 6.44829e-11, No Iterations 2
GAMG:  Solving for p_rgh, Initial residual = 0.00482531, Final residual = 7.16293e-08, No Iterations 13
GAMG:  Solving for p_rgh, Initial residual = 7.1661e-08, Final residual = 7.1661e-08, No Iterations 0
time step continuity errors : sum local = 3.2345e-09, global = -6.59807e-12, cumulative = 3.43536e-07
GAMG:  Solving for p_rgh, Initial residual = 7.57544e-05, Final residual = 8.61751e-08, No Iterations 6
GAMG:  Solving for p_rgh, Initial residual = 8.61656e-08, Final residual = 8.61656e-08, No Iterations 0
time step continuity errors : sum local = 3.88978e-09, global = 6.44255e-10, cumulative = 3.4418e-07
GAMG:  Solving for p_rgh, Initial residual = 1.50043e-06, Final residual = 6.95094e-08, No Iterations 1
GAMG:  Solving for p_rgh, Initial residual = 6.95094e-08, Final residual = 8.8178e-09, No Iterations 4
time step continuity errors : sum local = 3.98063e-10, global = 2.07583e-11, cumulative = 3.44201e-07
ExecutionTime = 104.52 s  ClockTime = 105 s

Courant Number mean: 0.0164799 max: 0.188372
Interface Courant Number mean: 0.000700662 max: 0.0595048
deltaT = 0.0333333
Time = 19.8667

PIMPLE: iteration 1
smoothSolver:  Solving for alpha.water, Initial residual = 0.000332193, Final residual = 2.53075e-11, No Iterations 2
Phase-1 volume fraction = 0.788636  Min(alpha.water) = 0  Max(alpha.water) = 1.00069
MULES: Correcting alpha.water
Phase-1 volume fraction = 0.788636  Min(alpha.water) = -6.49543e-12  Max(alpha.water) = 1.00069
Relaxing time: 0 s
DILUPBiCGStab:  Solving for Ux, Initial residual = 0.00485826, Final residual = 1.76312e-11, No Iterations 2
DILUPBiCGStab:  Solving for Uz, Initial residual = 0.0122574, Final residual = 6.59051e-11, No Iterations 2
GAMG:  Solving for p_rgh, Initial residual = 0.00485154, Final residual = 7.39954e-08, No Iterations 13
GAMG:  Solving for p_rgh, Initial residual = 7.4019e-08, Final residual = 7.4019e-08, No Iterations 0
time step continuity errors : sum local = 3.33906e-09, global = -7.60374e-12, cumulative = 3.44193e-07
GAMG:  Solving for p_rgh, Initial residual = 7.53908e-05, Final residual = 8.78904e-08, No Iterations 6
GAMG:  Solving for p_rgh, Initial residual = 8.78806e-08, Final residual = 8.78806e-08, No Iterations 0
time step continuity errors : sum local = 3.96499e-09, global = 6.57416e-10, cumulative = 3.44851e-07
GAMG:  Solving for p_rgh, Initial residual = 1.49071e-06, Final residual = 7.11934e-08, No Iterations 1
GAMG:  Solving for p_rgh, Initial residual = 7.11933e-08, Final residual = 9.00647e-09, No Iterations 4
time step continuity errors : sum local = 4.06353e-10, global = 2.05964e-11, cumulative = 3.44872e-07
ExecutionTime = 104.69 s  ClockTime = 105 s

Courant Number mean: 0.0164759 max: 0.187
Interface Courant Number mean: 0.000707297 max: 0.059596
deltaT = 0.0333333
Time = 19.9

PIMPLE: iteration 1
smoothSolver:  Solving for alpha.water, Initial residual = 0.000332341, Final residual = 2.52016e-11, No Iterations 2
Phase-1 volume fraction = 0.788653  Min(alpha.water) = 0  Max(alpha.water) = 1.00069
MULES: Correcting alpha.water
Phase-1 volume fraction = 0.788653  Min(alpha.water) = -7.39829e-12  Max(alpha.water) = 1.00069
Relaxing time: 0.01 s
DILUPBiCGStab:  Solving for Ux, Initial residual = 0.00486928, Final residual = 1.76383e-11, No Iterations 2
DILUPBiCGStab:  Solving for Uz, Initial residual = 0.0122858, Final residual = 6.70212e-11, No Iterations 2
GAMG:  Solving for p_rgh, Initial residual = 0.00487197, Final residual = 7.67776e-08, No Iterations 13
GAMG:  Solving for p_rgh, Initial residual = 7.6796e-08, Final residual = 7.6796e-08, No Iterations 0
time step continuity errors : sum local = 3.46339e-09, global = -9.11753e-12, cumulative = 3.44862e-07
GAMG:  Solving for p_rgh, Initial residual = 7.59574e-05, Final residual = 8.51939e-08, No Iterations 6
GAMG:  Solving for p_rgh, Initial residual = 8.51847e-08, Final residual = 8.51847e-08, No Iterations 0
time step continuity errors : sum local = 3.84229e-09, global = 6.19108e-10, cumulative = 3.45481e-07
GAMG:  Solving for p_rgh, Initial residual = 1.5012e-06, Final residual = 7.12513e-08, No Iterations 1
GAMG:  Solving for p_rgh, Initial residual = 7.12513e-08, Final residual = 8.80141e-09, No Iterations 4
time step continuity errors : sum local = 3.96991e-10, global = 1.79651e-11, cumulative = 3.45499e-07
ExecutionTime = 104.87 s  ClockTime = 105 s

Courant Number mean: 0.0164699 max: 0.185606
Interface Courant Number mean: 0.000701547 max: 0.0596396
deltaT = 0.0333333
Time = 19.9333

PIMPLE: iteration 1
smoothSolver:  Solving for alpha.water, Initial residual = 0.0003324, Final residual = 2.50854e-11, No Iterations 2
Phase-1 volume fraction = 0.788669  Min(alpha.water) = 0  Max(alpha.water) = 1.00069
MULES: Correcting alpha.water
Phase-1 volume fraction = 0.788669  Min(alpha.water) = -8.5944e-12  Max(alpha.water) = 1.00069
Relaxing time: 0 s
DILUPBiCGStab:  Solving for Ux, Initial residual = 0.00488013, Final residual = 1.76405e-11, No Iterations 2
DILUPBiCGStab:  Solving for Uz, Initial residual = 0.0123165, Final residual = 6.797e-11, No Iterations 2
GAMG:  Solving for p_rgh, Initial residual = 0.0048829, Final residual = 7.8556e-08, No Iterations 13
GAMG:  Solving for p_rgh, Initial residual = 7.85546e-08, Final residual = 7.85546e-08, No Iterations 0
time step continuity errors : sum local = 3.54305e-09, global = -1.01427e-11, cumulative = 3.45489e-07
GAMG:  Solving for p_rgh, Initial residual = 7.57041e-05, Final residual = 8.37724e-08, No Iterations 6
GAMG:  Solving for p_rgh, Initial residual = 8.37638e-08, Final residual = 8.37638e-08, No Iterations 0
time step continuity errors : sum local = 3.77855e-09, global = 5.48982e-10, cumulative = 3.46038e-07
GAMG:  Solving for p_rgh, Initial residual = 1.48982e-06, Final residual = 7.19102e-08, No Iterations 1
GAMG:  Solving for p_rgh, Initial residual = 7.19101e-08, Final residual = 8.85469e-09, No Iterations 4
time step continuity errors : sum local = 3.99432e-10, global = 1.33511e-11, cumulative = 3.46052e-07
ExecutionTime = 105.03 s  ClockTime = 105 s

Courant Number mean: 0.0164623 max: 0.184189
Interface Courant Number mean: 0.000707325 max: 0.0596453
deltaT = 0.0333333
Time = 19.9667

PIMPLE: iteration 1
smoothSolver:  Solving for alpha.water, Initial residual = 0.00033235, Final residual = 2.49537e-11, No Iterations 2
Phase-1 volume fraction = 0.788686  Min(alpha.water) = 0  Max(alpha.water) = 1.00069
MULES: Correcting alpha.water
Phase-1 volume fraction = 0.788686  Min(alpha.water) = -1.00973e-11  Max(alpha.water) = 1.00069
Relaxing time: 0 s
DILUPBiCGStab:  Solving for Ux, Initial residual = 0.00489102, Final residual = 1.76629e-11, No Iterations 2
DILUPBiCGStab:  Solving for Uz, Initial residual = 0.012346, Final residual = 6.88502e-11, No Iterations 2
GAMG:  Solving for p_rgh, Initial residual = 0.00486855, Final residual = 7.83258e-08, No Iterations 13
GAMG:  Solving for p_rgh, Initial residual = 7.83174e-08, Final residual = 7.83174e-08, No Iterations 0
time step continuity errors : sum local = 3.53406e-09, global = -1.01881e-11, cumulative = 3.46041e-07
GAMG:  Solving for p_rgh, Initial residual = 7.58662e-05, Final residual = 8.46542e-08, No Iterations 6
GAMG:  Solving for p_rgh, Initial residual = 8.46454e-08, Final residual = 8.46454e-08, No Iterations 0
time step continuity errors : sum local = 3.82017e-09, global = 5.30834e-10, cumulative = 3.46572e-07
GAMG:  Solving for p_rgh, Initial residual = 1.50667e-06, Final residual = 7.40654e-08, No Iterations 1
GAMG:  Solving for p_rgh, Initial residual = 7.40654e-08, Final residual = 9.07159e-09, No Iterations 4
time step continuity errors : sum local = 4.09414e-10, global = 1.0038e-11, cumulative = 3.46582e-07
ExecutionTime = 105.19 s  ClockTime = 106 s

Courant Number mean: 0.0164536 max: 0.182753
Interface Courant Number mean: 0.000708144 max: 0.0596021
deltaT = 0.0333333
Time = 20

PIMPLE: iteration 1
smoothSolver:  Solving for alpha.water, Initial residual = 0.000332192, Final residual = 2.48129e-11, No Iterations 2
Phase-1 volume fraction = 0.788703  Min(alpha.water) = 0  Max(alpha.water) = 1.00069
MULES: Correcting alpha.water
Phase-1 volume fraction = 0.788703  Min(alpha.water) = -1.18754e-11  Max(alpha.water) = 1.00069
Relaxing time: 0 s
DILUPBiCGStab:  Solving for Ux, Initial residual = 0.0049016, Final residual = 1.7701e-11, No Iterations 2
DILUPBiCGStab:  Solving for Uz, Initial residual = 0.0123715, Final residual = 6.9537e-11, No Iterations 2
GAMG:  Solving for p_rgh, Initial residual = 0.00484514, Final residual = 7.75814e-08, No Iterations 13
GAMG:  Solving for p_rgh, Initial residual = 7.75645e-08, Final residual = 7.75645e-08, No Iterations 0
time step continuity errors : sum local = 3.50261e-09, global = -1.0144e-11, cumulative = 3.46572e-07
GAMG:  Solving for p_rgh, Initial residual = 7.6176e-05, Final residual = 8.29016e-08, No Iterations 6
GAMG:  Solving for p_rgh, Initial residual = 8.28925e-08, Final residual = 8.28925e-08, No Iterations 0
time step continuity errors : sum local = 3.74378e-09, global = 5.80388e-10, cumulative = 3.47153e-07
GAMG:  Solving for p_rgh, Initial residual = 1.50839e-06, Final residual = 7.31887e-08, No Iterations 1
GAMG:  Solving for p_rgh, Initial residual = 7.31887e-08, Final residual = 8.54799e-09, No Iterations 4
time step continuity errors : sum local = 3.86065e-10, global = 1.31741e-11, cumulative = 3.47166e-07
ExecutionTime = 105.36 s  ClockTime = 106 s

End

Finalising parallel run
